<?xml version="1.0" encoding="UTF-8"?>

<!-- generated on 11/12/20 00:18:39 by Eclipse SUMO netedit Version 1.7.0
<configuration xmlns:xsi="http://www.w3.org/2001/XMLSchema-instance" xsi:noNamespaceSchemaLocation="http://sumo.dlr.de/xsd/netconvertConfiguration.xsd">

    <input>
        <sumo-net-file value="D:\01-Trabajo\01-Arquitectura\ETH\202009-Fall%202020\851-0101-86S%20Complex%20Social%20Systems%20Modeling%20Agents%20Learning%20and%20Games\project\experiments\base_001\data\grid01-bcn_05.net.xml"/>
    </input>

    <output>
        <output-file value="D:\01-Trabajo\01-Arquitectura\ETH\202009-Fall%202020\851-0101-86S%20Complex%20Social%20Systems%20Modeling%20Agents%20Learning%20and%20Games\project\experiments\base_001\data\grid01-bcn_05.net.xml"/>
    </output>

    <processing>
        <geometry.min-radius.fix.railways value="false"/>
        <geometry.max-grade.fix value="false"/>
        <offset.disable-normalization value="true"/>
        <lefthand value="false"/>
    </processing>

    <junctions>
        <no-internal-links value="false"/>
        <no-turnarounds value="true"/>
        <junctions.corner-detail value="5"/>
        <junctions.limit-turn-speed value="5.5"/>
        <rectangular-lane-cut value="false"/>
    </junctions>

    <pedestrian>
        <walkingareas value="true"/>
    </pedestrian>

    <report>
        <aggregate-warnings value="5"/>
    </report>

</configuration>
-->

<net version="1.6" junctionCornerDetail="5" walkingareas="true" limitTurnSpeed="5.50" xmlns:xsi="http://www.w3.org/2001/XMLSchema-instance" xsi:noNamespaceSchemaLocation="http://sumo.dlr.de/xsd/net_file.xsd">

    <location netOffset="0.00,0.00" convBoundary="0.00,0.00,1466.63,1466.63" origBoundary="0.00,0.00,1466.63,1466.63" projParameter="!"/>

    <edge id=":A1_w0" function="walkingarea">
        <lane id=":A1_w0_0" index="0" allow="pedestrian" speed="1.00" length="8.40" width="2.00" shape="0.00,126.93 0.00,124.93 0.00,135.33 0.00,133.33"/>
    </edge>
    <edge id=":A10_w0" function="walkingarea">
        <lane id=":A10_w0_0" index="0" allow="pedestrian" speed="1.00" length="8.40" width="2.00" shape="0.00,1333.30 0.00,1331.30 0.00,1341.70 0.00,1339.70"/>
    </edge>
    <edge id=":A2_w0" function="walkingarea">
        <lane id=":A2_w0_0" index="0" allow="pedestrian" speed="1.00" length="8.40" width="2.00" shape="0.00,266.66 0.00,264.66 0.00,275.06 0.00,273.06"/>
    </edge>
    <edge id=":A3_w0" function="walkingarea">
        <lane id=":A3_w0_0" index="0" allow="pedestrian" speed="1.00" length="8.40" width="2.00" shape="0.00,393.59 0.00,391.59 0.00,401.99 0.00,399.99"/>
    </edge>
    <edge id=":A4_w0" function="walkingarea">
        <lane id=":A4_w0_0" index="0" allow="pedestrian" speed="1.00" length="8.40" width="2.00" shape="0.00,533.32 0.00,531.32 0.00,541.72 0.00,539.72"/>
    </edge>
    <edge id=":A5_w0" function="walkingarea">
        <lane id=":A5_w0_0" index="0" allow="pedestrian" speed="1.00" length="8.40" width="2.00" shape="0.00,660.25 0.00,658.25 0.00,668.65 0.00,666.65"/>
    </edge>
    <edge id=":A6_w0" function="walkingarea">
        <lane id=":A6_w0_0" index="0" allow="pedestrian" speed="1.00" length="8.40" width="2.00" shape="0.00,799.98 0.00,797.98 0.00,808.38 0.00,806.38"/>
    </edge>
    <edge id=":A7_w0" function="walkingarea">
        <lane id=":A7_w0_0" index="0" allow="pedestrian" speed="1.00" length="8.40" width="2.00" shape="0.00,926.91 0.00,924.91 0.00,935.31 0.00,933.31"/>
    </edge>
    <edge id=":A8_w0" function="walkingarea">
        <lane id=":A8_w0_0" index="0" allow="pedestrian" speed="1.00" length="8.40" width="2.00" shape="0.00,1066.64 0.00,1064.64 0.00,1075.04 0.00,1073.04"/>
    </edge>
    <edge id=":A9_w0" function="walkingarea">
        <lane id=":A9_w0_0" index="0" allow="pedestrian" speed="1.00" length="8.40" width="2.00" shape="0.00,1193.57 0.00,1191.57 0.00,1201.97 0.00,1199.97"/>
    </edge>
    <edge id=":B0_w0" function="walkingarea">
        <lane id=":B0_w0_0" index="0" allow="pedestrian" speed="1.00" length="8.40" width="2.00" shape="133.33,0.00 135.33,0.00 124.93,0.00 126.93,0.00"/>
    </edge>
    <edge id=":B1_0" function="internal">
        <lane id=":B1_0_0" index="0" disallow="pedestrian" speed="13.89" length="14.40" shape="128.53,137.33 128.53,122.93"/>
        <lane id=":B1_0_1" index="1" disallow="pedestrian" speed="13.89" length="14.40" shape="131.73,137.33 131.73,122.93"/>
    </edge>
    <edge id=":B1_2" function="internal">
        <lane id=":B1_2_0" index="0" disallow="pedestrian" speed="6.51" length="9.03" shape="131.73,137.33 132.08,134.88 133.13,133.13 134.88,132.08 137.33,131.73"/>
    </edge>
    <edge id=":B1_3" function="internal">
        <lane id=":B1_3_0" index="0" disallow="pedestrian" speed="6.51" length="9.03" shape="122.93,128.53 125.38,128.18 127.13,127.13 128.18,125.38 128.53,122.93"/>
    </edge>
    <edge id=":B1_4" function="internal">
        <lane id=":B1_4_0" index="0" disallow="pedestrian" speed="13.89" length="14.40" shape="122.93,128.53 137.33,128.53"/>
        <lane id=":B1_4_1" index="1" disallow="pedestrian" speed="13.89" length="14.40" shape="122.93,131.73 137.33,131.73"/>
    </edge>
    <edge id=":B1_w0" function="walkingarea">
        <lane id=":B1_w0_0" index="0" allow="pedestrian" speed="1.00" length="4.24" width="2.00" shape="122.93,133.33 122.93,135.33 124.93,137.33 126.93,137.33 126.82,136.11 126.49,135.11 125.93,134.33 125.15,133.77 124.15,133.44"/>
    </edge>
    <edge id=":B1_w1" function="walkingarea">
        <lane id=":B1_w1_0" index="0" allow="pedestrian" speed="1.00" length="4.24" width="2.00" shape="133.33,137.33 135.33,137.33 137.33,135.33 137.33,133.33 136.11,133.44 135.11,133.77 134.33,134.33 133.77,135.11 133.44,136.11"/>
    </edge>
    <edge id=":B1_w2" function="walkingarea">
        <lane id=":B1_w2_0" index="0" allow="pedestrian" speed="1.00" length="4.24" width="2.00" shape="137.33,126.93 137.33,124.93 135.33,122.93 133.33,122.93 133.44,124.15 133.77,125.15 134.33,125.93 135.11,126.49 136.11,126.82"/>
    </edge>
    <edge id=":B1_w3" function="walkingarea">
        <lane id=":B1_w3_0" index="0" allow="pedestrian" speed="1.00" length="4.24" width="2.00" shape="126.93,122.93 124.93,122.93 122.93,124.93 122.93,126.93 124.15,126.82 125.15,126.49 125.93,125.93 126.49,125.15 126.82,124.15"/>
    </edge>
    <edge id=":B10_0" function="internal">
        <lane id=":B10_0_0" index="0" disallow="pedestrian" speed="6.51" length="9.03" shape="128.53,1343.70 128.18,1341.25 127.13,1339.50 125.38,1338.45 122.93,1338.10"/>
    </edge>
    <edge id=":B10_1" function="internal">
        <lane id=":B10_1_0" index="0" disallow="pedestrian" speed="13.89" length="14.40" shape="128.53,1343.70 128.53,1329.30"/>
        <lane id=":B10_1_1" index="1" disallow="pedestrian" speed="13.89" length="14.40" shape="131.73,1343.70 131.73,1329.30"/>
    </edge>
    <edge id=":B10_3" function="internal">
        <lane id=":B10_3_0" index="0" disallow="pedestrian" speed="13.89" length="14.40" shape="137.33,1338.10 122.93,1338.10"/>
        <lane id=":B10_3_1" index="1" disallow="pedestrian" speed="13.89" length="14.40" shape="137.33,1334.90 122.93,1334.90"/>
    </edge>
    <edge id=":B10_5" function="internal">
        <lane id=":B10_5_0" index="0" disallow="pedestrian" speed="6.51" length="9.03" shape="137.33,1334.90 134.88,1334.55 133.13,1333.50 132.08,1331.75 131.73,1329.30"/>
    </edge>
    <edge id=":B10_w0" function="walkingarea">
        <lane id=":B10_w0_0" index="0" allow="pedestrian" speed="1.00" length="4.24" width="2.00" shape="122.93,1339.70 122.93,1341.70 124.93,1343.70 126.93,1343.70 126.82,1342.48 126.49,1341.48 125.93,1340.70 125.15,1340.14 124.15,1339.81"/>
    </edge>
    <edge id=":B10_w1" function="walkingarea">
        <lane id=":B10_w1_0" index="0" allow="pedestrian" speed="1.00" length="4.24" width="2.00" shape="133.33,1343.70 135.33,1343.70 137.33,1341.70 137.33,1339.70 136.11,1339.81 135.11,1340.14 134.33,1340.70 133.77,1341.48 133.44,1342.48"/>
    </edge>
    <edge id=":B10_w2" function="walkingarea">
        <lane id=":B10_w2_0" index="0" allow="pedestrian" speed="1.00" length="4.24" width="2.00" shape="137.33,1333.30 137.33,1331.30 135.33,1329.30 133.33,1329.30 133.44,1330.52 133.77,1331.52 134.33,1332.30 135.11,1332.86 136.11,1333.19"/>
    </edge>
    <edge id=":B10_w3" function="walkingarea">
        <lane id=":B10_w3_0" index="0" allow="pedestrian" speed="1.00" length="4.24" width="2.00" shape="126.93,1329.30 124.93,1329.30 122.93,1331.30 122.93,1333.30 124.15,1333.19 125.15,1332.86 125.93,1332.30 126.49,1331.52 126.82,1330.52"/>
    </edge>
    <edge id=":B11_w0" function="walkingarea">
        <lane id=":B11_w0_0" index="0" allow="pedestrian" speed="1.00" length="8.40" width="2.00" shape="126.93,1466.63 124.93,1466.63 135.33,1466.63 133.33,1466.63"/>
    </edge>
    <edge id=":B2_0" function="internal">
        <lane id=":B2_0_0" index="0" disallow="pedestrian" speed="6.51" length="9.03" shape="128.53,277.06 128.18,274.61 127.13,272.86 125.38,271.81 122.93,271.46"/>
    </edge>
    <edge id=":B2_1" function="internal">
        <lane id=":B2_1_0" index="0" disallow="pedestrian" speed="13.89" length="14.40" shape="128.53,277.06 128.53,262.66"/>
        <lane id=":B2_1_1" index="1" disallow="pedestrian" speed="13.89" length="14.40" shape="131.73,277.06 131.73,262.66"/>
    </edge>
    <edge id=":B2_3" function="internal">
        <lane id=":B2_3_0" index="0" disallow="pedestrian" speed="13.89" length="14.40" shape="137.33,271.46 122.93,271.46"/>
        <lane id=":B2_3_1" index="1" disallow="pedestrian" speed="13.89" length="14.40" shape="137.33,268.26 122.93,268.26"/>
    </edge>
    <edge id=":B2_5" function="internal">
        <lane id=":B2_5_0" index="0" disallow="pedestrian" speed="6.51" length="9.03" shape="137.33,268.26 134.88,267.91 133.13,266.86 132.08,265.11 131.73,262.66"/>
    </edge>
    <edge id=":B2_w0" function="walkingarea">
        <lane id=":B2_w0_0" index="0" allow="pedestrian" speed="1.00" length="4.24" width="2.00" shape="122.93,273.06 122.93,275.06 124.93,277.06 126.93,277.06 126.82,275.84 126.49,274.84 125.93,274.06 125.15,273.50 124.15,273.17"/>
    </edge>
    <edge id=":B2_w1" function="walkingarea">
        <lane id=":B2_w1_0" index="0" allow="pedestrian" speed="1.00" length="4.24" width="2.00" shape="133.33,277.06 135.33,277.06 137.33,275.06 137.33,273.06 136.11,273.17 135.11,273.50 134.33,274.06 133.77,274.84 133.44,275.84"/>
    </edge>
    <edge id=":B2_w2" function="walkingarea">
        <lane id=":B2_w2_0" index="0" allow="pedestrian" speed="1.00" length="4.24" width="2.00" shape="137.33,266.66 137.33,264.66 135.33,262.66 133.33,262.66 133.44,263.88 133.77,264.88 134.33,265.66 135.11,266.22 136.11,266.55"/>
    </edge>
    <edge id=":B2_w3" function="walkingarea">
        <lane id=":B2_w3_0" index="0" allow="pedestrian" speed="1.00" length="4.24" width="2.00" shape="126.93,262.66 124.93,262.66 122.93,264.66 122.93,266.66 124.15,266.55 125.15,266.22 125.93,265.66 126.49,264.88 126.82,263.88"/>
    </edge>
    <edge id=":B3_0" function="internal">
        <lane id=":B3_0_0" index="0" disallow="pedestrian" speed="13.89" length="14.40" shape="128.53,403.99 128.53,389.59"/>
        <lane id=":B3_0_1" index="1" disallow="pedestrian" speed="13.89" length="14.40" shape="131.73,403.99 131.73,389.59"/>
    </edge>
    <edge id=":B3_2" function="internal">
        <lane id=":B3_2_0" index="0" disallow="pedestrian" speed="6.51" length="9.03" shape="131.73,403.99 132.08,401.54 133.13,399.79 134.88,398.74 137.33,398.39"/>
    </edge>
    <edge id=":B3_3" function="internal">
        <lane id=":B3_3_0" index="0" disallow="pedestrian" speed="6.51" length="9.03" shape="122.93,395.19 125.38,394.84 127.13,393.79 128.18,392.04 128.53,389.59"/>
    </edge>
    <edge id=":B3_4" function="internal">
        <lane id=":B3_4_0" index="0" disallow="pedestrian" speed="13.89" length="14.40" shape="122.93,395.19 137.33,395.19"/>
        <lane id=":B3_4_1" index="1" disallow="pedestrian" speed="13.89" length="14.40" shape="122.93,398.39 137.33,398.39"/>
    </edge>
    <edge id=":B3_w0" function="walkingarea">
        <lane id=":B3_w0_0" index="0" allow="pedestrian" speed="1.00" length="4.24" width="2.00" shape="122.93,399.99 122.93,401.99 124.93,403.99 126.93,403.99 126.82,402.77 126.49,401.77 125.93,400.99 125.15,400.43 124.15,400.10"/>
    </edge>
    <edge id=":B3_w1" function="walkingarea">
        <lane id=":B3_w1_0" index="0" allow="pedestrian" speed="1.00" length="4.24" width="2.00" shape="133.33,403.99 135.33,403.99 137.33,401.99 137.33,399.99 136.11,400.10 135.11,400.43 134.33,400.99 133.77,401.77 133.44,402.77"/>
    </edge>
    <edge id=":B3_w2" function="walkingarea">
        <lane id=":B3_w2_0" index="0" allow="pedestrian" speed="1.00" length="4.24" width="2.00" shape="137.33,393.59 137.33,391.59 135.33,389.59 133.33,389.59 133.44,390.81 133.77,391.81 134.33,392.59 135.11,393.15 136.11,393.48"/>
    </edge>
    <edge id=":B3_w3" function="walkingarea">
        <lane id=":B3_w3_0" index="0" allow="pedestrian" speed="1.00" length="4.24" width="2.00" shape="126.93,389.59 124.93,389.59 122.93,391.59 122.93,393.59 124.15,393.48 125.15,393.15 125.93,392.59 126.49,391.81 126.82,390.81"/>
    </edge>
    <edge id=":B4_0" function="internal">
        <lane id=":B4_0_0" index="0" disallow="pedestrian" speed="6.51" length="9.03" shape="128.53,543.72 128.18,541.27 127.13,539.52 125.38,538.47 122.93,538.12"/>
    </edge>
    <edge id=":B4_1" function="internal">
        <lane id=":B4_1_0" index="0" disallow="pedestrian" speed="13.89" length="14.40" shape="128.53,543.72 128.53,529.32"/>
        <lane id=":B4_1_1" index="1" disallow="pedestrian" speed="13.89" length="14.40" shape="131.73,543.72 131.73,529.32"/>
    </edge>
    <edge id=":B4_3" function="internal">
        <lane id=":B4_3_0" index="0" disallow="pedestrian" speed="13.89" length="14.40" shape="137.33,538.12 122.93,538.12"/>
        <lane id=":B4_3_1" index="1" disallow="pedestrian" speed="13.89" length="14.40" shape="137.33,534.92 122.93,534.92"/>
    </edge>
    <edge id=":B4_5" function="internal">
        <lane id=":B4_5_0" index="0" disallow="pedestrian" speed="6.51" length="9.03" shape="137.33,534.92 134.88,534.57 133.13,533.52 132.08,531.77 131.73,529.32"/>
    </edge>
    <edge id=":B4_w0" function="walkingarea">
        <lane id=":B4_w0_0" index="0" allow="pedestrian" speed="1.00" length="4.24" width="2.00" shape="122.93,539.72 122.93,541.72 124.93,543.72 126.93,543.72 126.82,542.50 126.49,541.50 125.93,540.72 125.15,540.16 124.15,539.83"/>
    </edge>
    <edge id=":B4_w1" function="walkingarea">
        <lane id=":B4_w1_0" index="0" allow="pedestrian" speed="1.00" length="4.24" width="2.00" shape="133.33,543.72 135.33,543.72 137.33,541.72 137.33,539.72 136.11,539.83 135.11,540.16 134.33,540.72 133.77,541.50 133.44,542.50"/>
    </edge>
    <edge id=":B4_w2" function="walkingarea">
        <lane id=":B4_w2_0" index="0" allow="pedestrian" speed="1.00" length="4.24" width="2.00" shape="137.33,533.32 137.33,531.32 135.33,529.32 133.33,529.32 133.44,530.54 133.77,531.54 134.33,532.32 135.11,532.88 136.11,533.21"/>
    </edge>
    <edge id=":B4_w3" function="walkingarea">
        <lane id=":B4_w3_0" index="0" allow="pedestrian" speed="1.00" length="4.24" width="2.00" shape="126.93,529.32 124.93,529.32 122.93,531.32 122.93,533.32 124.15,533.21 125.15,532.88 125.93,532.32 126.49,531.54 126.82,530.54"/>
    </edge>
    <edge id=":B5_0" function="internal">
        <lane id=":B5_0_0" index="0" disallow="pedestrian" speed="13.89" length="14.40" shape="128.53,670.65 128.53,656.25"/>
        <lane id=":B5_0_1" index="1" disallow="pedestrian" speed="13.89" length="14.40" shape="131.73,670.65 131.73,656.25"/>
    </edge>
    <edge id=":B5_2" function="internal">
        <lane id=":B5_2_0" index="0" disallow="pedestrian" speed="6.51" length="9.03" shape="131.73,670.65 132.08,668.20 133.13,666.45 134.88,665.40 137.33,665.05"/>
    </edge>
    <edge id=":B5_3" function="internal">
        <lane id=":B5_3_0" index="0" disallow="pedestrian" speed="6.51" length="9.03" shape="122.93,661.85 125.38,661.50 127.13,660.45 128.18,658.70 128.53,656.25"/>
    </edge>
    <edge id=":B5_4" function="internal">
        <lane id=":B5_4_0" index="0" disallow="pedestrian" speed="13.89" length="14.40" shape="122.93,661.85 137.33,661.85"/>
        <lane id=":B5_4_1" index="1" disallow="pedestrian" speed="13.89" length="14.40" shape="122.93,665.05 137.33,665.05"/>
    </edge>
    <edge id=":B5_w0" function="walkingarea">
        <lane id=":B5_w0_0" index="0" allow="pedestrian" speed="1.00" length="4.24" width="2.00" shape="122.93,666.65 122.93,668.65 124.93,670.65 126.93,670.65 126.82,669.43 126.49,668.43 125.93,667.65 125.15,667.09 124.15,666.76"/>
    </edge>
    <edge id=":B5_w1" function="walkingarea">
        <lane id=":B5_w1_0" index="0" allow="pedestrian" speed="1.00" length="4.24" width="2.00" shape="133.33,670.65 135.33,670.65 137.33,668.65 137.33,666.65 136.11,666.76 135.11,667.09 134.33,667.65 133.77,668.43 133.44,669.43"/>
    </edge>
    <edge id=":B5_w2" function="walkingarea">
        <lane id=":B5_w2_0" index="0" allow="pedestrian" speed="1.00" length="4.24" width="2.00" shape="137.33,660.25 137.33,658.25 135.33,656.25 133.33,656.25 133.44,657.47 133.77,658.47 134.33,659.25 135.11,659.81 136.11,660.14"/>
    </edge>
    <edge id=":B5_w3" function="walkingarea">
        <lane id=":B5_w3_0" index="0" allow="pedestrian" speed="1.00" length="4.24" width="2.00" shape="126.93,656.25 124.93,656.25 122.93,658.25 122.93,660.25 124.15,660.14 125.15,659.81 125.93,659.25 126.49,658.47 126.82,657.47"/>
    </edge>
    <edge id=":B6_0" function="internal">
        <lane id=":B6_0_0" index="0" disallow="pedestrian" speed="6.51" length="9.03" shape="128.53,810.38 128.18,807.93 127.13,806.18 125.38,805.13 122.93,804.78"/>
    </edge>
    <edge id=":B6_1" function="internal">
        <lane id=":B6_1_0" index="0" disallow="pedestrian" speed="13.89" length="14.40" shape="128.53,810.38 128.53,795.98"/>
        <lane id=":B6_1_1" index="1" disallow="pedestrian" speed="13.89" length="14.40" shape="131.73,810.38 131.73,795.98"/>
    </edge>
    <edge id=":B6_3" function="internal">
        <lane id=":B6_3_0" index="0" disallow="pedestrian" speed="13.89" length="14.40" shape="137.33,804.78 122.93,804.78"/>
        <lane id=":B6_3_1" index="1" disallow="pedestrian" speed="13.89" length="14.40" shape="137.33,801.58 122.93,801.58"/>
    </edge>
    <edge id=":B6_5" function="internal">
        <lane id=":B6_5_0" index="0" disallow="pedestrian" speed="6.51" length="9.03" shape="137.33,801.58 134.88,801.23 133.13,800.18 132.08,798.43 131.73,795.98"/>
    </edge>
    <edge id=":B6_w0" function="walkingarea">
        <lane id=":B6_w0_0" index="0" allow="pedestrian" speed="1.00" length="4.24" width="2.00" shape="122.93,806.38 122.93,808.38 124.93,810.38 126.93,810.38 126.82,809.16 126.49,808.16 125.93,807.38 125.15,806.82 124.15,806.49"/>
    </edge>
    <edge id=":B6_w1" function="walkingarea">
        <lane id=":B6_w1_0" index="0" allow="pedestrian" speed="1.00" length="4.24" width="2.00" shape="133.33,810.38 135.33,810.38 137.33,808.38 137.33,806.38 136.11,806.49 135.11,806.82 134.33,807.38 133.77,808.16 133.44,809.16"/>
    </edge>
    <edge id=":B6_w2" function="walkingarea">
        <lane id=":B6_w2_0" index="0" allow="pedestrian" speed="1.00" length="4.24" width="2.00" shape="137.33,799.98 137.33,797.98 135.33,795.98 133.33,795.98 133.44,797.20 133.77,798.20 134.33,798.98 135.11,799.54 136.11,799.87"/>
    </edge>
    <edge id=":B6_w3" function="walkingarea">
        <lane id=":B6_w3_0" index="0" allow="pedestrian" speed="1.00" length="4.24" width="2.00" shape="126.93,795.98 124.93,795.98 122.93,797.98 122.93,799.98 124.15,799.87 125.15,799.54 125.93,798.98 126.49,798.20 126.82,797.20"/>
    </edge>
    <edge id=":B7_0" function="internal">
        <lane id=":B7_0_0" index="0" disallow="pedestrian" speed="13.89" length="14.40" shape="128.53,937.31 128.53,922.91"/>
        <lane id=":B7_0_1" index="1" disallow="pedestrian" speed="13.89" length="14.40" shape="131.73,937.31 131.73,922.91"/>
    </edge>
    <edge id=":B7_2" function="internal">
        <lane id=":B7_2_0" index="0" disallow="pedestrian" speed="6.51" length="9.03" shape="131.73,937.31 132.08,934.86 133.13,933.11 134.88,932.06 137.33,931.71"/>
    </edge>
    <edge id=":B7_3" function="internal">
        <lane id=":B7_3_0" index="0" disallow="pedestrian" speed="6.51" length="9.03" shape="122.93,928.51 125.38,928.16 127.13,927.11 128.18,925.36 128.53,922.91"/>
    </edge>
    <edge id=":B7_4" function="internal">
        <lane id=":B7_4_0" index="0" disallow="pedestrian" speed="13.89" length="14.40" shape="122.93,928.51 137.33,928.51"/>
        <lane id=":B7_4_1" index="1" disallow="pedestrian" speed="13.89" length="14.40" shape="122.93,931.71 137.33,931.71"/>
    </edge>
    <edge id=":B7_w0" function="walkingarea">
        <lane id=":B7_w0_0" index="0" allow="pedestrian" speed="1.00" length="4.24" width="2.00" shape="122.93,933.31 122.93,935.31 124.93,937.31 126.93,937.31 126.82,936.09 126.49,935.09 125.93,934.31 125.15,933.75 124.15,933.42"/>
    </edge>
    <edge id=":B7_w1" function="walkingarea">
        <lane id=":B7_w1_0" index="0" allow="pedestrian" speed="1.00" length="4.24" width="2.00" shape="133.33,937.31 135.33,937.31 137.33,935.31 137.33,933.31 136.11,933.42 135.11,933.75 134.33,934.31 133.77,935.09 133.44,936.09"/>
    </edge>
    <edge id=":B7_w2" function="walkingarea">
        <lane id=":B7_w2_0" index="0" allow="pedestrian" speed="1.00" length="4.24" width="2.00" shape="137.33,926.91 137.33,924.91 135.33,922.91 133.33,922.91 133.44,924.13 133.77,925.13 134.33,925.91 135.11,926.47 136.11,926.80"/>
    </edge>
    <edge id=":B7_w3" function="walkingarea">
        <lane id=":B7_w3_0" index="0" allow="pedestrian" speed="1.00" length="4.24" width="2.00" shape="126.93,922.91 124.93,922.91 122.93,924.91 122.93,926.91 124.15,926.80 125.15,926.47 125.93,925.91 126.49,925.13 126.82,924.13"/>
    </edge>
    <edge id=":B8_0" function="internal">
        <lane id=":B8_0_0" index="0" disallow="pedestrian" speed="6.51" length="9.03" shape="128.53,1077.04 128.18,1074.59 127.13,1072.84 125.38,1071.79 122.93,1071.44"/>
    </edge>
    <edge id=":B8_1" function="internal">
        <lane id=":B8_1_0" index="0" disallow="pedestrian" speed="13.89" length="14.40" shape="128.53,1077.04 128.53,1062.64"/>
        <lane id=":B8_1_1" index="1" disallow="pedestrian" speed="13.89" length="14.40" shape="131.73,1077.04 131.73,1062.64"/>
    </edge>
    <edge id=":B8_3" function="internal">
        <lane id=":B8_3_0" index="0" disallow="pedestrian" speed="13.89" length="14.40" shape="137.33,1071.44 122.93,1071.44"/>
        <lane id=":B8_3_1" index="1" disallow="pedestrian" speed="13.89" length="14.40" shape="137.33,1068.24 122.93,1068.24"/>
    </edge>
    <edge id=":B8_5" function="internal">
        <lane id=":B8_5_0" index="0" disallow="pedestrian" speed="6.51" length="9.03" shape="137.33,1068.24 134.88,1067.89 133.13,1066.84 132.08,1065.09 131.73,1062.64"/>
    </edge>
    <edge id=":B8_w0" function="walkingarea">
        <lane id=":B8_w0_0" index="0" allow="pedestrian" speed="1.00" length="4.24" width="2.00" shape="122.93,1073.04 122.93,1075.04 124.93,1077.04 126.93,1077.04 126.82,1075.82 126.49,1074.82 125.93,1074.04 125.15,1073.48 124.15,1073.15"/>
    </edge>
    <edge id=":B8_w1" function="walkingarea">
        <lane id=":B8_w1_0" index="0" allow="pedestrian" speed="1.00" length="4.24" width="2.00" shape="133.33,1077.04 135.33,1077.04 137.33,1075.04 137.33,1073.04 136.11,1073.15 135.11,1073.48 134.33,1074.04 133.77,1074.82 133.44,1075.82"/>
    </edge>
    <edge id=":B8_w2" function="walkingarea">
        <lane id=":B8_w2_0" index="0" allow="pedestrian" speed="1.00" length="4.24" width="2.00" shape="137.33,1066.64 137.33,1064.64 135.33,1062.64 133.33,1062.64 133.44,1063.86 133.77,1064.86 134.33,1065.64 135.11,1066.20 136.11,1066.53"/>
    </edge>
    <edge id=":B8_w3" function="walkingarea">
        <lane id=":B8_w3_0" index="0" allow="pedestrian" speed="1.00" length="4.24" width="2.00" shape="126.93,1062.64 124.93,1062.64 122.93,1064.64 122.93,1066.64 124.15,1066.53 125.15,1066.20 125.93,1065.64 126.49,1064.86 126.82,1063.86"/>
    </edge>
    <edge id=":B9_0" function="internal">
        <lane id=":B9_0_0" index="0" disallow="pedestrian" speed="13.89" length="14.40" shape="128.53,1203.97 128.53,1189.57"/>
        <lane id=":B9_0_1" index="1" disallow="pedestrian" speed="13.89" length="14.40" shape="131.73,1203.97 131.73,1189.57"/>
    </edge>
    <edge id=":B9_2" function="internal">
        <lane id=":B9_2_0" index="0" disallow="pedestrian" speed="6.51" length="9.03" shape="131.73,1203.97 132.08,1201.52 133.13,1199.77 134.88,1198.72 137.33,1198.37"/>
    </edge>
    <edge id=":B9_3" function="internal">
        <lane id=":B9_3_0" index="0" disallow="pedestrian" speed="6.51" length="9.03" shape="122.93,1195.17 125.38,1194.82 127.13,1193.77 128.18,1192.02 128.53,1189.57"/>
    </edge>
    <edge id=":B9_4" function="internal">
        <lane id=":B9_4_0" index="0" disallow="pedestrian" speed="13.89" length="14.40" shape="122.93,1195.17 137.33,1195.17"/>
        <lane id=":B9_4_1" index="1" disallow="pedestrian" speed="13.89" length="14.40" shape="122.93,1198.37 137.33,1198.37"/>
    </edge>
    <edge id=":B9_w0" function="walkingarea">
        <lane id=":B9_w0_0" index="0" allow="pedestrian" speed="1.00" length="4.24" width="2.00" shape="122.93,1199.97 122.93,1201.97 124.93,1203.97 126.93,1203.97 126.82,1202.75 126.49,1201.75 125.93,1200.97 125.15,1200.41 124.15,1200.08"/>
    </edge>
    <edge id=":B9_w1" function="walkingarea">
        <lane id=":B9_w1_0" index="0" allow="pedestrian" speed="1.00" length="4.24" width="2.00" shape="133.33,1203.97 135.33,1203.97 137.33,1201.97 137.33,1199.97 136.11,1200.08 135.11,1200.41 134.33,1200.97 133.77,1201.75 133.44,1202.75"/>
    </edge>
    <edge id=":B9_w2" function="walkingarea">
        <lane id=":B9_w2_0" index="0" allow="pedestrian" speed="1.00" length="4.24" width="2.00" shape="137.33,1193.57 137.33,1191.57 135.33,1189.57 133.33,1189.57 133.44,1190.79 133.77,1191.79 134.33,1192.57 135.11,1193.13 136.11,1193.46"/>
    </edge>
    <edge id=":B9_w3" function="walkingarea">
        <lane id=":B9_w3_0" index="0" allow="pedestrian" speed="1.00" length="4.24" width="2.00" shape="126.93,1189.57 124.93,1189.57 122.93,1191.57 122.93,1193.57 124.15,1193.46 125.15,1193.13 125.93,1192.57 126.49,1191.79 126.82,1190.79"/>
    </edge>
    <edge id=":C0_w0" function="walkingarea">
        <lane id=":C0_w0_0" index="0" allow="pedestrian" speed="1.00" length="8.40" width="2.00" shape="273.06,0.00 275.06,0.00 264.66,0.00 266.66,0.00"/>
    </edge>
    <edge id=":C1_0" function="internal">
        <lane id=":C1_0_0" index="0" disallow="pedestrian" speed="6.51" length="9.03" shape="271.46,122.93 271.81,125.38 272.86,127.13 274.61,128.18 277.06,128.53"/>
    </edge>
    <edge id=":C1_1" function="internal">
        <lane id=":C1_1_0" index="0" disallow="pedestrian" speed="13.89" length="14.40" shape="271.46,122.93 271.46,137.33"/>
        <lane id=":C1_1_1" index="1" disallow="pedestrian" speed="13.89" length="14.40" shape="268.26,122.93 268.26,137.33"/>
    </edge>
    <edge id=":C1_3" function="internal">
        <lane id=":C1_3_0" index="0" disallow="pedestrian" speed="13.89" length="14.40" shape="262.66,128.53 277.06,128.53"/>
        <lane id=":C1_3_1" index="1" disallow="pedestrian" speed="13.89" length="14.40" shape="262.66,131.73 277.06,131.73"/>
    </edge>
    <edge id=":C1_5" function="internal">
        <lane id=":C1_5_0" index="0" disallow="pedestrian" speed="6.51" length="9.03" shape="262.66,131.73 265.11,132.08 266.86,133.13 267.91,134.88 268.26,137.33"/>
    </edge>
    <edge id=":C1_w0" function="walkingarea">
        <lane id=":C1_w0_0" index="0" allow="pedestrian" speed="1.00" length="4.24" width="2.00" shape="262.66,133.33 262.66,135.33 264.66,137.33 266.66,137.33 266.55,136.11 266.22,135.11 265.66,134.33 264.88,133.77 263.88,133.44"/>
    </edge>
    <edge id=":C1_w1" function="walkingarea">
        <lane id=":C1_w1_0" index="0" allow="pedestrian" speed="1.00" length="4.24" width="2.00" shape="273.06,137.33 275.06,137.33 277.06,135.33 277.06,133.33 275.84,133.44 274.84,133.77 274.06,134.33 273.50,135.11 273.17,136.11"/>
    </edge>
    <edge id=":C1_w2" function="walkingarea">
        <lane id=":C1_w2_0" index="0" allow="pedestrian" speed="1.00" length="4.24" width="2.00" shape="277.06,126.93 277.06,124.93 275.06,122.93 273.06,122.93 273.17,124.15 273.50,125.15 274.06,125.93 274.84,126.49 275.84,126.82"/>
    </edge>
    <edge id=":C1_w3" function="walkingarea">
        <lane id=":C1_w3_0" index="0" allow="pedestrian" speed="1.00" length="4.24" width="2.00" shape="266.66,122.93 264.66,122.93 262.66,124.93 262.66,126.93 263.88,126.82 264.88,126.49 265.66,125.93 266.22,125.15 266.55,124.15"/>
    </edge>
    <edge id=":C10_0" function="internal">
        <lane id=":C10_0_0" index="0" disallow="pedestrian" speed="6.51" length="9.03" shape="277.06,1338.10 274.61,1338.45 272.86,1339.50 271.81,1341.25 271.46,1343.70"/>
    </edge>
    <edge id=":C10_1" function="internal">
        <lane id=":C10_1_0" index="0" disallow="pedestrian" speed="13.89" length="14.40" shape="277.06,1338.10 262.66,1338.10"/>
        <lane id=":C10_1_1" index="1" disallow="pedestrian" speed="13.89" length="14.40" shape="277.06,1334.90 262.66,1334.90"/>
    </edge>
    <edge id=":C10_3" function="internal">
        <lane id=":C10_3_0" index="0" disallow="pedestrian" speed="13.89" length="14.40" shape="271.46,1329.30 271.46,1343.70"/>
        <lane id=":C10_3_1" index="1" disallow="pedestrian" speed="13.89" length="14.40" shape="268.26,1329.30 268.26,1343.70"/>
    </edge>