<?xml version="1.0" encoding="UTF-8"?>
<!-- generated on 2020-12-09 03:21:19.004086 by randomTrips.py v1_7_0+0000-714814baed
  options: -n .\data/grid01-bcn_100.net.xml <doubleminus>prefix=0h <doubleminus>fringe-factor 100 -b 0 -e 3600 -p5.405405405405405 <doubleminus>binomial 10 -odata/random/random_h_0-bcn_100.trips.rou.xml <doubleminus>edge-permission=passenger
-->
<routes xmlns:xsi="http://www.w3.org/2001/XMLSchema-instance" xsi:noNamespaceSchemaLocation="http://sumo.dlr.de/xsd/routes_file.xsd">
    <trip id="0h0" depart="1.00" from="L4K4" to="K1L1"/>
    <trip id="0h1" depart="9.00" from="L10K10" to="K10K11"/>
    <trip id="0h2" depart="12.00" from="D11D10" to="B10A10"/>
    <trip id="0h3" depart="26.00" from="L4K4" to="C3C4"/>
    <trip id="0h4" depart="28.00" from="L2K2" to="J1J0"/>
    <trip id="0h5" depart="28.00" from="A3B3" to="K9L9"/>
    <trip id="0h6" depart="35.00" from="dAB" to="H1H0"/>
    <trip id="0h7" depart="38.00" from="C0C1" to="F1F0"/>
    <trip id="0h8" depart="41.00" from="L2K2" to="K3L3"/>
    <trip id="0h9" depart="46.00" from="D6D5" to="K3L3"/>
    <trip id="0h10" depart="57.00" from="dAB" to="B2A2"/>
    <trip id="0h11" depart="61.00" from="H11H10" to="C10C11"/>
    <trip id="0h12" depart="66.00" from="F6E6" to="I10I11"/>
    <trip id="0h13" depart="85.00" from="L4K4" to="K9L9"/>
    <trip id="0h14" depart="92.00" from="H11H10" to="G10G11"/>
    <trip id="0h15" depart="99.00" from="L6K6" to="B4A4"/>
    <trip id="0h16" depart="100.00" from="L4K4" to="B8A8"/>
    <trip id="0h17" depart="109.00" from="L8K8" to="I10I11"/>
    <trip id="0h18" depart="113.00" from="C5D5" to="B6A6"/>
    <trip id="0h19" depart="113.00" from="L2K2" to="B6A6"/>
    <trip id="0h20" depart="135.00" from="A3B3" to="C10B10"/>
    <trip id="0h21" depart="136.00" from="H11H10" to="B8A8"/>
    <trip id="0h22" depart="138.00" from="L4K4" to="D1D0"/>
    <trip id="0h23" depart="176.00" from="H7H6" to="dBA"/>
    <trip id="0h24" depart="178.00" from="I0I1" to="B2A2"/>
    <trip id="0h25" depart="182.00" from="K0K1" to="K10K11"/>
    <trip id="0h26" depart="190.00" from="A1B1" to="C1D1"/>
    <trip id="0h27" depart="192.00" from="A9B9" to="B2A2"/>
    <trip id="0h28" depart="199.00" from="dAB" to="dKL"/>
    <trip id="0h29" depart="205.00" from="H11H10" to="E10E11"/>
    <trip id="0h30" depart="206.00" from="H8H7" to="B10A10"/>
    <trip id="0h31" depart="206.00" from="L4K4" to="K10K11"/>
    <trip id="0h32" depart="208.00" from="A9B9" to="G6F6"/>
    <trip id="0h33" depart="215.00" from="D11D10" to="E10E11"/>
    <trip id="0h34" depart="226.00" from="C0C1" to="H1H0"/>
    <trip id="0h35" depart="235.00" from="A7B7" to="K5L5"/>
    <trip id="0h36" depart="244.00" from="L2K2" to="K1L1"/>
    <trip id="0h37" depart="246.00" from="dKJ" to="B6A6"/>
    <trip id="0h38" depart="248.00" from="G0G1" to="B4A4"/>
    <trip id="0h39" depart="249.00" from="K4J4" to="K5L5"/>
    <trip id="0h40" depart="250.00" from="J7K7" to="F1F0"/>
    <trip id="0h41" depart="255.00" from="A3B3" to="C10C11"/>
    <trip id="0h42" depart="265.00" from="A9B9" to="I10I11"/>
    <trip id="0h43" depart="266.00" from="F11F10" to="B8A8"/>
    <trip id="0h44" depart="266.00" from="K0K1" to="K7L7"/>
    <trip id="0h45" depart="273.00" from="L6K6" to="dKL"/>
    <trip id="0h46" depart="283.00" from="dAB" to="B6A6"/>
    <trip id="0h47" depart="289.00" from="E0E1" to="K1L1"/>
    <trip id="0h48" depart="311.00" from="dAB" to="J4J3"/>
    <trip id="0h49" depart="311.00" from="B5B4" to="K5L5"/>
    <trip id="0h50" depart="321.00" from="C0C1" to="K3L3"/>
    <trip id="0h51" depart="322.00" from="D11D10" to="K7L7"/>
    <trip id="0h52" depart="330.00" from="K0K1" to="K9L9"/>
    <trip id="0h53" depart="341.00" from="A5B5" to="J1J0"/>
    <trip id="0h54" depart="354.00" from="B3B2" to="J1J0"/>
    <trip id="0h55" depart="360.00" from="K0K1" to="F1F0"/>
    <trip id="0h56" depart="362.00" from="A3B3" to="K10K11"/>
    <trip id="0h57" depart="365.00" from="K0K1" to="H1H0"/>
    <trip id="0h58" depart="368.00" from="I3I4" to="H1H0"/>
    <trip id="0h59" depart="372.00" from="B11B10" to="B8A8"/>
    <trip id="0h60" depart="391.00" from="K0K1" to="K10K11"/>
    <trip id="0h61" depart="394.00" from="A5B5" to="B4A4"/>
    <trip id="0h62" depart="397.00" from="A7B7" to="dKL"/>
    <trip id="0h63" depart="402.00" from="L6K6" to="B8A8"/>
    <trip id="0h64" depart="408.00" from="B11B10" to="I10I11"/>
    <trip id="0h65" depart="422.00" from="L4K4" to="K7L7"/>
    <trip id="0h66" depart="422.00" from="dAB" to="dBA"/>
    <trip id="0h67" depart="422.00" from="F11F10" to="C10C11"/>
    <trip id="0h68" depart="422.00" from="E0E1" to="F1F0"/>
    <trip id="0h69" depart="431.00" from="A3B3" to="K5L5"/>
    <trip id="0h70" depart="435.00" from="J11J10" to="E10E11"/>
    <trip id="0h71" depart="450.00" from="L2K2" to="E10E11"/>
    <trip id="0h72" depart="456.00" from="K1K2" to="B2A2"/>
    <trip id="0h73" depart="457.00" from="I0I1" to="K10K11"/>
    <trip id="0h74" depart="458.00" from="E0E1" to="C10C11"/>
    <trip id="0h75" depart="468.00" from="C0C1" to="F1F0"/>
    <trip id="0h76" depart="478.00" from="L8K8" to="B8A8"/>
    <trip id="0h77" depart="485.00" from="A1B1" to="J1J0"/>
    <trip id="0h78" depart="486.00" from="A9B9" to="C10C11"/>
    <trip id="0h79" depart="486.00" from="K0K1" to="D1D0"/>
    <trip id="0h80" depart="494.00" from="dAB" to="K10K11"/>
    <trip id="0h81" depart="496.00" from="J11J10" to="H1H0"/>
    <trip id="0h82" depart="506.00" from="A7B7" to="B4A4"/>
    <trip id="0h83" depart="507.00" from="dLK" to="F10E10"/>
    <trip id="0h84" depart="510.00" from="L10K10" to="G10G11"/>
    <trip id="0h85" depart="518.00" from="A5B5" to="B6A6"/>
    <trip id="0h86" depart="522.00" from="dAB" to="F4E4"/>
    <trip id="0h87" depart="525.00" from="A5B5" to="B2A2"/>
    <trip id="0h88" depart="532.00" from="dGF" to="K5L5"/>
    <trip id="0h89" depart="542.00" from="G0G1" to="B10A10"/>
    <trip id="0h90" depart="544.00" from="B11B10" to="B2A2"/>
    <trip id="0h91" depart="553.00" from="dLK" to="B10A10"/>
    <trip id="0h92" depart="554.00" from="L10K10" to="dCB"/>
    <trip id="0h93" depart="569.00" from="L10K10" to="dKL"/>
    <trip id="0h94" depart="577.00" from="C0C1" to="dIH"/>
    <trip id="0h95" depart="583.00" from="H11H10" to="E10E11"/>
    <trip id="0h96" depart="590.00" from="B11B10" to="B6A6"/>
    <trip id="0h97" depart="633.00" from="A7B7" to="D1D0"/>
    <trip id="0h98" depart="643.00" from="dLK" to="K10K11"/>
    <trip id="0h99" depart="653.00" from="A5B5" to="B6A6"/>
    <trip id="0h100" depart="655.00" from="A5B5" to="B10A10"/>
    <trip id="0h101" depart="657.00" from="J11J10" to="K1L1"/>
    <trip id="0h102" depart="663.00" from="L8K8" to="E10E11"/>
    <trip id="0h103" depart="670.00" from="L4K4" to="dBA"/>
    <trip id="0h104" depart="673.00" from="C0C1" to="H1H0"/>
    <trip id="0h105" depart="696.00" from="G0G1" to="K7L7"/>
    <trip id="0h106" depart="696.00" from="dAB" to="G10G11"/>
    <trip id="0h107" depart="699.00" from="K0K1" to="J3K3"/>
    <trip id="0h108" depart="699.00" from="G0G1" to="K9L9"/>
    <trip id="0h109" depart="702.00" from="G0G1" to="dBA"/>
    <trip id="0h110" depart="708.00" from="A9B9" to="B1B0"/>
    <trip id="0h111" depart="713.00" from="E0E1" to="K5L5"/>
    <trip id="0h112" depart="716.00" from="I0I1" to="K10K11"/>
    <trip id="0h113" depart="719.00" from="B11B10" to="B8A8"/>
    <trip id="0h114" depart="732.00" from="C3C4" to="K7K8"/>
    <trip id="0h115" depart="736.00" from="L4K4" to="K7L7"/>
    <trip id="0h116" depart="742.00" from="A7B7" to="B1B0"/>
    <trip id="0h117" depart="747.00" from="A5B5" to="dBA"/>
    <trip id="0h118" depart="749.00" from="A5B5" to="C10C11"/>
    <trip id="0h119" depart="751.00" from="L2K2" to="K3L3"/>
    <trip id="0h120" depart="761.00" from="L8K8" to="B1B0"/>
    <trip id="0h121" depart="766.00" from="G7G8" to="K1L1"/>
    <trip id="0h122" depart="770.00" from="L2K2" to="J1J0"/>
    <trip id="0h123" depart="773.00" from="A3B3" to="K1L1"/>
    <trip id="0h124" depart="776.00" from="I0I1" to="dKL"/>
    <trip id="0h125" depart="777.00" from="J10J9" to="dKL"/>
    <trip id="0h126" depart="780.00" from="E0E1" to="B1B0"/>
    <trip id="0h127" depart="788.00" from="A3B3" to="H1H0"/>
    <trip id="0h128" depart="796.00" from="L10K10" to="I10I11"/>
    <trip id="0h129" depart="805.00" from="C4C5" to="dBA"/>
    <trip id="0h130" depart="811.00" from="E0E1" to="dKL"/>
    <trip id="0h131" depart="813.00" from="H11H10" to="B4A4"/>
    <trip id="0h132" depart="823.00" from="L8K8" to="B6A6"/>
    <trip id="0h133" depart="834.00" from="H8H7" to="K7L7"/>
    <trip id="0h134" depart="843.00" from="D11D10" to="J1J0"/>
    <trip id="0h135" depart="850.00" from="dLK" to="dK4"/>
    <trip id="0h136" depart="856.00" from="dAB" to="B4A4"/>
    <trip id="0h137" depart="860.00" from="dLK" to="B10A10"/>
    <trip id="0h138" depart="865.00" from="L6K6" to="K10K11"/>
    <trip id="0h139" depart="870.00" from="E0E1" to="C10C11"/>
    <trip id="0h140" depart="879.00" from="L6K6" to="C10C11"/>
    <trip id="0h141" depart="886.00" from="L4K4" to="I3J3"/>
    <trip id="0h142" depart="888.00" from="F6E6" to="K7L7"/>
    <trip id="0h143" depart="889.00" from="L4K4" to="B10A10"/>
    <trip id="0h144" depart="894.00" from="E0E1" to="B8A8"/>
    <trip id="0h145" depart="895.00" from="A7B7" to="E10E11"/>
    <trip id="0h146" depart="904.00" from="A9B9" to="I10I11"/>
    <trip id="0h147" depart="911.00" from="D11D10" to="G10G11"/>
    <trip id="0h148" depart="917.00" from="A5B5" to="D1D0"/>
    <trip id="0h149" depart="922.00" from="B11B10" to="K5L5"/>
    <trip id="0h150" depart="931.00" from="G0G1" to="D1D0"/>
    <trip id="0h151" depart="934.00" from="D7E7" to="K1L1"/>
    <trip id="0h152" depart="939.00" from="A1B1" to="C10C11"/>
    <trip id="0h153" depart="940.00" from="B3C3" to="D4D3"/>
    <trip id="0h154" depart="946.00" from="L4K4" to="K9L9"/>
    <trip id="0h155" depart="949.00" from="G0G1" to="K10K11"/>
    <trip id="0h156" depart="949.00" from="J11J10" to="B2A2"/>
    <trip id="0h157" depart="953.00" from="C7D7" to="J2I2"/>
    <trip id="0h158" depart="973.00" from="L10K10" to="K5L5"/>
    <trip id="0h159" depart="983.00" from="L4K4" to="dDE"/>
    <trip id="0h160" depart="998.00" from="A5B5" to="C10C11"/>
    <trip id="0h161" depart="1006.00" from="L6K6" to="B10A10"/>
    <trip id="0h162" depart="1010.00" from="A7B7" to="E10E11"/>
    <trip id="0h163" depart="1012.00" from="A3B3" to="I10I11"/>
    <trip id="0h164" depart="1023.00" from="L6K6" to="J1J0"/>
    <trip id="0h165" depart="1025.00" from="G2G3" to="E10E11"/>
    <trip id="0h166" depart="1028.00" from="K0K1" to="K3L3"/>
    <trip id="0h167" depart="1033.00" from="F11F10" to="B4A4"/>
    <trip id="0h168" depart="1043.00" from="F11F10" to="H1H0"/>
    <trip id="0h169" depart="1043.00" from="D11D10" to="B2A2"/>
    <trip id="0h170" depart="1047.00" from="L6K6" to="K7L7"/>
    <trip id="0h171" depart="1049.00" from="C0C1" to="D5D4"/>
    <trip id="0h172" depart="1057.00" from="F11F10" to="D1D0"/>
    <trip id="0h173" depart="1061.00" from="A7B7" to="K9L9"/>
    <trip id="0h174" depart="1068.00" from="D11D10" to="I10I11"/>
    <trip id="0h175" depart="1072.00" from="D11D10" to="J1J0"/>
    <trip id="0h176" depart="1079.00" from="D11D10" to="B1B0"/>
    <trip id="0h177" depart="1080.00" from="D11D10" to="D1D0"/>
    <trip id="0h178" depart="1092.00" from="A1B1" to="K10K11"/>
    <trip id="0h179" depart="1101.00" from="dAB" to="D1D0"/>
    <trip id="0h180" depart="1108.00" from="L2K2" to="I9I10"/>
    <trip id="0h181" depart="1123.00" from="F11F10" to="B10A10"/>
    <trip id="0h182" depart="1126.00" from="L6K6" to="B10A10"/>
    <trip id="0h183" depart="1133.00" from="L4K4" to="E5E6"/>
    <trip id="0h184" depart="1139.00" from="L8K8" to="B2A2"/>
    <trip id="0h185" depart="1149.00" from="L10K10" to="D9D8"/>
    <trip id="0h186" depart="1152.00" from="B3B2" to="I10I11"/>
    <trip id="0h187" depart="1155.00" from="A5B5" to="D1D0"/>
    <trip id="0h188" depart="1172.00" from="B11B10" to="B10A10"/>
    <trip id="0h189" depart="1180.00" from="J11J10" to="K1L1"/>
    <trip id="0h190" depart="1185.00" from="E0E1" to="B10A10"/>
    <trip id="0h191" depart="1196.00" from="dAB" to="B6A6"/>
    <trip id="0h192" depart="1196.00" from="B11B10" to="K5L5"/>
    <trip id="0h193" depart="1218.00" from="L6K6" to="B1B0"/>
    <trip id="0h194" depart="1224.00" from="L8K8" to="F1F0"/>
    <trip id="0h195" depart="1230.00" from="A1B1" to="K5L5"/>
    <trip id="0h196" depart="1232.00" from="L4K4" to="B8A8"/>
    <trip id="0h197" depart="1233.00" from="A9B9" to="B6A6"/>
    <trip id="0h198" depart="1236.00" from="L2K2" to="B2A2"/>
    <trip id="0h199" depart="1240.00" from="L4K4" to="K10K11"/>
    <trip id="0h200" depart="1243.00" from="D11D10" to="B4A4"/>
    <trip id="0h201" depart="1251.00" from="C0C1" to="B4A4"/>
    <trip id="0h202" depart="1260.00" from="L10K10" to="I10I11"/>
    <trip id="0h203" depart="1266.00" from="A1B1" to="B1B0"/>
    <trip id="0h204" depart="1266.00" from="C0C1" to="B10A10"/>
    <trip id="0h205" depart="1270.00" from="L8K8" to="K10K11"/>
    <trip id="0h206" depart="1280.00" from="L4K4" to="H1H0"/>
    <trip id="0h207" depart="1286.00" from="A7B7" to="K7L7"/>
    <trip id="0h208" depart="1289.00" from="L2K2" to="K5L5"/>
    <trip id="0h209" depart="1294.00" from="A3B3" to="K5L5"/>
    <trip id="0h210" depart="1294.00" from="L8K8" to="B4A4"/>
    <trip id="0h211" depart="1307.00" from="A9B9" to="dBA"/>
    <trip id="0h212" depart="1310.00" from="D11D10" to="J1J0"/>
    <trip id="0h213" depart="1324.00" from="L6K6" to="K3L3"/>
    <trip id="0h214" depart="1326.00" from="G0G1" to="K5L5"/>
    <trip id="0h215" depart="1329.00" from="F11F10" to="J1J0"/>
    <trip id="0h216" depart="1330.00" from="B11B10" to="F1F0"/>
    <trip id="0h217" depart="1337.00" from="A3B3" to="K7L7"/>
    <trip id="0h218" depart="1345.00" from="H11H10" to="G10G11"/>
    <trip id="0h219" depart="1346.00" from="A9B9" to="B4A4"/>
    <trip id="0h220" depart="1355.00" from="L4K4" to="dGH"/>
    <trip id="0h221" depart="1357.00" from="G0G1" to="K7L7"/>
    <trip id="0h222" depart="1366.00" from="B11B10" to="K4J4"/>
    <trip id="0h223" depart="1372.00" from="E0E1" to="dKL"/>
    <trip id="0h224" depart="1381.00" from="B11B10" to="K1L1"/>
    <trip id="0h225" depart="1382.00" from="H11H10" to="C10C11"/>
    <trip id="0h226" depart="1386.00" from="A5B5" to="B6A6"/>
    <trip id="0h227" depart="1394.00" from="dLK" to="D1D0"/>
    <trip id="0h228" depart="1394.00" from="A9B9" to="B2A2"/>
    <trip id="0h229" depart="1401.00" from="K5K6" to="dBA"/>
    <trip id="0h230" depart="1413.00" from="A1B1" to="K10K11"/>
    <trip id="0h231" depart="1417.00" from="C0C1" to="B8A8"/>
    <trip id="0h232" depart="1420.00" from="J11J10" to="J1J0"/>
    <trip id="0h233" depart="1421.00" from="J11J10" to="C10C11"/>
    <trip id="0h234" depart="1433.00" from="A9B9" to="K5L5"/>
    <trip id="0h235" depart="1435.00" from="J11J10" to="B8A8"/>
    <trip id="0h236" depart="1440.00" from="A3B3" to="B6A6"/>
    <trip id="0h237" depart="1445.00" from="L4K4" to="H1H0"/>
    <trip id="0h238" depart="1453.00" from="L4K4" to="C10C11"/>
    <trip id="0h239" depart="1453.00" from="D11D10" to="F1F0"/>
    <trip id="0h240" depart="1458.00" from="K0K1" to="H1H0"/>
    <trip id="0h241" depart="1461.00" from="G10F10" to="F1F0"/>
    <trip id="0h242" depart="1475.00" from="H11H10" to="B2A2"/>
    <trip id="0h243" depart="1475.00" from="D11D10" to="dKL"/>
    <trip id="0h244" depart="1478.00" from="A7B7" to="K9L9"/>
    <trip id="0h245" depart="1484.00" from="J11J10" to="K10K11"/>
    <trip id="0h246" depart="1491.00" from="D11D10" to="G10G11"/>
    <trip id="0h247" depart="1503.00" from="D11D10" to="B10A10"/>
    <trip id="0h248" depart="1505.00" from="E0E1" to="H1H0"/>
    <trip id="0h249" depart="1507.00" from="C9D9" to="B2A2"/>
    <trip id="0h250" depart="1507.00" from="A5B5" to="B8A8"/>
    <trip id="0h251" depart="1524.00" from="F11F10" to="G10G11"/>
    <trip id="0h252" depart="1530.00" from="K0K1" to="dKL"/>
    <trip id="0h253" depart="1532.00" from="A5B5" to="dKL"/>
    <trip id="0h254" depart="1544.00" from="A9B9" to="K10K11"/>
    <trip id="0h255" depart="1548.00" from="B11B10" to="dKL"/>
    <trip id="0h256" depart="1553.00" from="L10K10" to="dBA"/>
    <trip id="0h257" depart="1558.00" from="A9B9" to="K5L5"/>
    <trip id="0h258" depart="1565.00" from="I0I1" to="B2A2"/>
    <trip id="0h259" depart="1582.00" from="L4K4" to="D1D0"/>
    <trip id="0h260" depart="1588.00" from="G0G1" to="H1H0"/>
    <trip id="0h261" depart="1589.00" from="L4K4" to="F1F0"/>
    <trip id="0h262" depart="1598.00" from="L6K6" to="K7L7"/>
    <trip id="0h263" depart="1601.00" from="K0K1" to="K3L3"/>
    <trip id="0h264" depart="1607.00" from="B11B10" to="K9L9"/>
    <trip id="0h265" depart="1607.00" from="K0K1" to="E10E11"/>
    <trip id="0h266" depart="1608.00" from="A5B5" to="C10C11"/>
    <trip id="0h267" depart="1611.00" from="L6K6" to="F10E10"/>
    <trip id="0h268" depart="1613.00" from="J4J3" to="dBA"/>
    <trip id="0h269" depart="1614.00" from="L2K2" to="K3L3"/>
    <trip id="0h270" depart="1618.00" from="dLK" to="I10I11"/>
    <trip id="0h271" depart="1619.00" from="dAB" to="K9L9"/>
    <trip id="0h272" depart="1624.00" from="L10K10" to="B1B0"/>
    <trip id="0h273" depart="1625.00" from="A5B5" to="H1H0"/>
    <trip id="0h274" depart="1630.00" from="dJI" to="C10C11"/>
    <trip id="0h275" depart="1642.00" from="A3B3" to="B4A4"/>
    <trip id="0h276" depart="1646.00" from="E0E1" to="dJK"/>
    <trip id="0h277" depart="1647.00" from="K0K1" to="I10I11"/>
    <trip id="0h278" depart="1647.00" from="D2C2" to="dBA"/>
    <trip id="0h279" depart="1652.00" from="G0G1" to="E10E11"/>
    <trip id="0h280" depart="1655.00" from="L2K2" to="H1H0"/>
    <trip id="0h281" depart="1659.00" from="F11F10" to="B2A2"/>
    <trip id="0h282" depart="1668.00" from="A7B7" to="J1J0"/>
    <trip id="0h283" depart="1668.00" from="A1B1" to="B6A6"/>
    <trip id="0h284" depart="1677.00" from="J4J3" to="E10E11"/>
    <trip id="0h285" depart="1691.00" from="H11H10" to="K10K11"/>
    <trip id="0h286" depart="1702.00" from="E0E1" to="G10G11"/>
    <trip id="0h287" depart="1712.00" from="K0K1" to="B8A8"/>
    <trip id="0h288" depart="1715.00" from="dAB" to="B2A2"/>
    <trip id="0h289" depart="1715.00" from="A7B7" to="B8A8"/>
    <trip id="0h290" depart="1716.00" from="J11J10" to="K10J10"/>
    <trip id="0h291" depart="1722.00" from="F11F10" to="I10I11"/>
    <trip id="0h292" depart="1732.00" from="L8K8" to="I10I11"/>
    <trip id="0h293" depart="1746.00" from="L6K6" to="B4A4"/>
    <trip id="0h294" depart="1749.00" from="G0G1" to="B4A4"/>
    <trip id="0h295" depart="1760.00" from="H11H10" to="B6A6"/>
    <trip id="0h296" depart="1770.00" from="L2K2" to="B2A2"/>
    <trip id="0h297" depart="1771.00" from="L4K4" to="B6A6"/>
    <trip id="0h298" depart="1777.00" from="A1B1" to="dBA"/>
    <trip id="0h299" depart="1778.00" from="J11J10" to="D1D0"/>
    <trip id="0h300" depart="1785.00" from="L8K8" to="H1H0"/>
    <trip id="0h301" depart="1789.00" from="F11F10" to="C1C2"/>
    <trip id="0h302" depart="1796.00" from="L8K8" to="I10I11"/>
    <trip id="0h303" depart="1799.00" from="dLK" to="E10E11"/>
    <trip id="0h304" depart="1806.00" from="L6K6" to="dKL"/>
    <trip id="0h305" depart="1816.00" from="L6K6" to="F1F0"/>
    <trip id="0h306" depart="1825.00" from="D11D10" to="I10I11"/>
    <trip id="0h307" depart="1832.00" from="dLK" to="H1H0"/>
    <trip id="0h308" depart="1839.00" from="dAB" to="C10C11"/>
    <trip id="0h309" depart="1841.00" from="A7B7" to="F1F0"/>
    <trip id="0h310" depart="1844.00" from="A9B9" to="H1H0"/>
    <trip id="0h311" depart="1851.00" from="L2K2" to="B1B0"/>
    <trip id="0h312" depart="1857.00" from="G0G1" to="J1J0"/>
    <trip id="0h313" depart="1861.00" from="C0C1" to="B8A8"/>
    <trip id="0h314" depart="1862.00" from="D11D10" to="B8A8"/>
    <trip id="0h315" depart="1872.00" from="A3B3" to="B4A4"/>
    <trip id="0h316" depart="1873.00" from="L8K8" to="B10A10"/>
    <trip id="0h317" depart="1873.00" from="H11H10" to="B8A8"/>
    <trip id="0h318" depart="1874.00" from="H11H10" to="I10I11"/>
    <trip id="0h319" depart="1880.00" from="E0E1" to="D1D0"/>
    <trip id="0h320" depart="1884.00" from="C0C1" to="B4A4"/>
    <trip id="0h321" depart="1886.00" from="K0K1" to="K9L9"/>
    <trip id="0h322" depart="1891.00" from="G5H5" to="K3L3"/>
    <trip id="0h323" depart="1899.00" from="K0K1" to="B8A8"/>
    <trip id="0h324" depart="1901.00" from="L6K6" to="K5L5"/>
    <trip id="0h325" depart="1902.00" from="dAB" to="G2F2"/>
    <trip id="0h326" depart="1907.00" from="A5B5" to="B6A6"/>
    <trip id="0h327" depart="1908.00" from="A7B7" to="G10G11"/>
    <trip id="0h328" depart="1911.00" from="L4K4" to="H3H2"/>
    <trip id="0h329" depart="1911.00" from="J9K9" to="K10K11"/>
    <trip id="0h330" depart="1915.00" from="dAB" to="B8A8"/>
    <trip id="0h331" depart="1917.00" from="dAB" to="K3L3"/>
    <trip id="0h332" depart="1926.00" from="A9B9" to="F1F0"/>
    <trip id="0h333" depart="1928.00" from="K0K1" to="E10E11"/>
    <trip id="0h334" depart="1932.00" from="A9B9" to="K10K11"/>
    <trip id="0h335" depart="1941.00" from="B11B10" to="I10I11"/>
    <trip id="0h336" depart="1946.00" from="L2K2" to="dKL"/>
    <trip id="0h337" depart="1947.00" from="L10K10" to="B2A2"/>
    <trip id="0h338" depart="1949.00" from="A9B9" to="E10E11"/>
    <trip id="0h339" depart="1951.00" from="H11H10" to="D1D0"/>
    <trip id="0h340" depart="1965.00" from="H11H10" to="E2E3"/>
    <trip id="0h341" depart="1972.00" from="A3B3" to="dKL"/>
    <trip id="0h342" depart="1974.00" from="I0I1" to="B8A8"/>
    <trip id="0h343" depart="1975.00" from="dAB" to="J1J0"/>
    <trip id="0h344" depart="1982.00" from="D11D10" to="G7G8"/>
    <trip id="0h345" depart="1983.00" from="L4K4" to="I10I11"/>
    <trip id="0h346" depart="1988.00" from="H11H10" to="D1D0"/>
    <trip id="0h347" depart="1996.00" from="A9B9" to="K5L5"/>
    <trip id="0h348" depart="2001.00" from="C0C1" to="J1J0"/>
    <trip id="0h349" depart="2002.00" from="J11J10" to="dGF"/>
    <trip id="0h350" depart="2004.00" from="dAB" to="K3L3"/>
    <trip id="0h351" depart="2009.00" from="A1B1" to="B4A4"/>
    <trip id="0h352" depart="2009.00" from="J11J10" to="G10G11"/>
    <trip id="0h353" depart="2011.00" from="A9B9" to="K2J2"/>
    <trip id="0h354" depart="2013.00" from="dAB" to="C10C11"/>
    <trip id="0h355" depart="2019.00" from="F11F10" to="B1B0"/>
    <trip id="0h356" depart="2031.00" from="B11B10" to="dBA"/>
    <trip id="0h357" depart="2032.00" from="G1H1" to="G1G2"/>
    <trip id="0h358" depart="2035.00" from="C0C1" to="F1F0"/>
    <trip id="0h359" depart="2038.00" from="D11D10" to="K3L3"/>
    <trip id="0h360" depart="2039.00" from="B11B10" to="K7L7"/>
    <trip id="0h361" depart="2040.00" from="D11D10" to="K9L9"/>
    <trip id="0h362" depart="2040.00" from="L2K2" to="J1J0"/>
    <trip id="0h363" depart="2048.00" from="G0G1" to="C10C11"/>
    <trip id="0h364" depart="2053.00" from="A3B3" to="K1L1"/>
    <trip id="0h365" depart="2054.00" from="H11H10" to="B2A2"/>
    <trip id="0h366" depart="2058.00" from="I0I1" to="K1L1"/>
    <trip id="0h367" depart="2060.00" from="dLK" to="F1F0"/>
    <trip id="0h368" depart="2061.00" from="A9B9" to="K5L5"/>
    <trip id="0h369" depart="2062.00" from="F11F10" to="K10K11"/>
    <trip id="0h370" depart="2067.00" from="K0K1" to="B1B0"/>
    <trip id="0h371" depart="2067.00" from="J11J10" to="I10I11"/>
    <trip id="0h372" depart="2073.00" from="K0K1" to="D1D0"/>
    <trip id="0h373" depart="2074.00" from="L6K6" to="K5L5"/>
    <trip id="0h374" depart="2076.00" from="I0I1" to="B1B0"/>
    <trip id="0h375" depart="2085.00" from="L10K10" to="B6A6"/>
    <trip id="0h376" depart="2091.00" from="J11J10" to="dBA"/>
    <trip id="0h377" depart="2094.00" from="A3B3" to="H1H0"/>
    <trip id="0h378" depart="2096.00" from="L2K2" to="K7L7"/>
    <trip id="0h379" depart="2099.00" from="L2K2" to="J1J0"/>
    <trip id="0h380" depart="2100.00" from="D11D10" to="B1B0"/>
    <trip id="0h381" depart="2104.00" from="A9B9" to="D1D0"/>
    <trip id="0h382" depart="2105.00" from="H11H10" to="K1L1"/>
    <trip id="0h383" depart="2141.00" from="dLK" to="K3L3"/>
    <trip id="0h384" depart="2149.00" from="G0G1" to="B8A8"/>
    <trip id="0h385" depart="2151.00" from="A1B1" to="D1D0"/>
    <trip id="0h386" depart="2153.00" from="L4K4" to="B1B0"/>
    <trip id="0h387" depart="2154.00" from="L6K6" to="K6K7"/>
    <trip id="0h388" depart="2155.00" from="A1B1" to="B6A6"/>
    <trip id="0h389" depart="2162.00" from="C0C1" to="H1H0"/>
    <trip id="0h390" depart="2174.00" from="A5B5" to="H1H0"/>
    <trip id="0h391" depart="2177.00" from="E0E1" to="I10I11"/>
    <trip id="0h392" depart="2183.00" from="C0C1" to="K10K11"/>
    <trip id="0h393" depart="2188.00" from="A7B7" to="K9L9"/>
    <trip id="0h394" depart="2188.00" from="dLK" to="H1H0"/>
    <trip id="0h395" depart="2198.00" from="L4K4" to="H1H0"/>
    <trip id="0h396" depart="2199.00" from="J11J10" to="K5L5"/>
    <trip id="0h397" depart="2204.00" from="dAB" to="C10C11"/>
    <trip id="0h398" depart="2210.00" from="L4K4" to="H9I9"/>
    <trip id="0h399" depart="2212.00" from="A3B3" to="B1B0"/>
    <trip id="0h400" depart="2215.00" from="C0C1" to="B6A6"/>
    <trip id="0h401" depart="2216.00" from="A1B1" to="B1B0"/>
    <trip id="0h402" depart="2222.00" from="B11B10" to="B3B2"/>
    <trip id="0h403" depart="2223.00" from="A7B7" to="F1F0"/>
    <trip id="0h404" depart="2224.00" from="J3J2" to="B6A6"/>
    <trip id="0h405" depart="2240.00" from="F11F10" to="B4A4"/>
    <trip id="0h406" depart="2244.00" from="dAB" to="dKL"/>
    <trip id="0h407" depart="2247.00" from="A9B9" to="J1J0"/>
    <trip id="0h408" depart="2248.00" from="A3B3" to="B4A4"/>
    <trip id="0h409" depart="2253.00" from="A5B5" to="D1D0"/>
    <trip id="0h410" depart="2256.00" from="dAB" to="H1H0"/>
    <trip id="0h411" depart="2264.00" from="L4K4" to="D1D0"/>
    <trip id="0h412" depart="2272.00" from="J11J10" to="E10E11"/>
    <trip id="0h413" depart="2274.00" from="A1B1" to="K10K11"/>
    <trip id="0h414" depart="2281.00" from="L4K4" to="K10K11"/>
    <trip id="0h415" depart="2284.00" from="L8K8" to="B1B0"/>
    <trip id="0h416" depart="2284.00" from="dAB" to="K7L7"/>
    <trip id="0h417" depart="2288.00" from="D1E1" to="K1L1"/>
    <trip id="0h418" depart="2294.00" from="L10K10" to="B6A6"/>
    <trip id="0h419" depart="2295.00" from="C0C1" to="I10I11"/>
    <trip id="0h420" depart="2301.00" from="A7B7" to="B6A6"/>
    <trip id="0h421" depart="2303.00" from="dEF" to="J1J0"/>
    <trip id="0h422" depart="2310.00" from="H11H10" to="J1J0"/>
    <trip id="0h423" depart="2312.00" from="G0G1" to="C10C11"/>
    <trip id="0h424" depart="2314.00" from="I0I1" to="B10A10"/>
    <trip id="0h425" depart="2315.00" from="dLK" to="B10A10"/>
    <trip id="0h426" depart="2323.00" from="J11J10" to="B1B0"/>
    <trip id="0h427" depart="2334.00" from="J11J10" to="D1D0"/>
    <trip id="0h428" depart="2335.00" from="dLK" to="B10A10"/>
    <trip id="0h429" depart="2342.00" from="L2K2" to="I10I11"/>
    <trip id="0h430" depart="2372.00" from="L2K2" to="G10G11"/>
    <trip id="0h431" depart="2375.00" from="dAB" to="D10D9"/>
    <trip id="0h432" depart="2379.00" from="I8I9" to="F1F0"/>
    <trip id="0h433" depart="2385.00" from="F11F10" to="B6A6"/>
    <trip id="0h434" depart="2391.00" from="L2K2" to="K5L5"/>
    <trip id="0h435" depart="2393.00" from="L10K10" to="G10G11"/>
    <trip id="0h436" depart="2403.00" from="C0C1" to="dBA"/>
    <trip id="0h437" depart="2415.00" from="dKJ" to="C10C11"/>
    <trip id="0h438" depart="2419.00" from="E0E1" to="B4A4"/>
    <trip id="0h439" depart="2419.00" from="J11J10" to="B1B0"/>
    <trip id="0h440" depart="2420.00" from="A9B9" to="K1L1"/>
    <trip id="0h441" depart="2423.00" from="L8K8" to="K9L9"/>
    <trip id="0h442" depart="2425.00" from="E0E1" to="E10E11"/>
    <trip id="0h443" depart="2433.00" from="F11F10" to="B2A2"/>
    <trip id="0h444" depart="2440.00" from="I0I1" to="B4A4"/>
    <trip id="0h445" depart="2444.00" from="E0E1" to="C10C11"/>
    <trip id="0h446" depart="2450.00" from="D11D10" to="K3L3"/>
    <trip id="0h447" depart="2465.00" from="A9B9" to="dBA"/>
    <trip id="0h448" depart="2467.00" from="B11B10" to="B4A4"/>
    <trip id="0h449" depart="2482.00" from="L2K2" to="K3L3"/>
    <trip id="0h450" depart="2512.00" from="C0C1" to="B2A2"/>
    <trip id="0h451" depart="2513.00" from="A9B9" to="F1F0"/>
    <trip id="0h452" depart="2514.00" from="L6K6" to="dBA"/>
    <trip id="0h453" depart="2517.00" from="B11B10" to="K5L5"/>
    <trip id="0h454" depart="2519.00" from="A5B5" to="E10E11"/>
    <trip id="0h455" depart="2537.00" from="A9B9" to="D4D3"/>
    <trip id="0h456" depart="2545.00" from="L10K10" to="G10G11"/>
    <trip id="0h457" depart="2548.00" from="dLK" to="H1H0"/>
    <trip id="0h458" depart="2552.00" from="C0C1" to="J4J3"/>
    <trip id="0h459" depart="2560.00" from="A3B3" to="K1L1"/>
    <trip id="0h460" depart="2567.00" from="L10K10" to="B4A4"/>
    <trip id="0h461" depart="2582.00" from="F11F10" to="B1B0"/>
    <trip id="0h462" depart="2588.00" from="dC8" to="K1L1"/>
    <trip id="0h463" depart="2588.00" from="J11J10" to="I10I11"/>
    <trip id="0h464" depart="2589.00" from="H11H10" to="K1L1"/>
    <trip id="0h465" depart="2604.00" from="A3B3" to="E8D8"/>
    <trip id="0h466" depart="2609.00" from="A5B5" to="C10C11"/>
    <trip id="0h467" depart="2613.00" from="D11D10" to="B10A10"/>
    <trip id="0h468" depart="2613.00" from="L2K2" to="K5L5"/>
    <trip id="0h469" depart="2616.00" from="dAB" to="B8A8"/>
    <trip id="0h470" depart="2617.00" from="A9B9" to="K3L3"/>
    <trip id="0h471" depart="2620.00" from="J7K7" to="F1F0"/>
    <trip id="0h472" depart="2633.00" from="L8K8" to="I6I7"/>