<?xml version="1.0" encoding="UTF-8"?>
<!-- generated on 2020-12-09 03:21:49.996379 by randomTrips.py v1_7_0+0000-714814baed
  options: -n .\data/grid01-bcn_100.net.xml <doubleminus>prefix=23h <doubleminus>fringe-factor 100 -b 82800 -e 86400 -p0.9571922361074182 <doubleminus>binomial 10 -odata/random/random_h_23-bcn_100.trips.rou.xml <doubleminus>edge-permission=passenger
-->
<routes xmlns:xsi="http://www.w3.org/2001/XMLSchema-instance" xsi:noNamespaceSchemaLocation="http://sumo.dlr.de/xsd/routes_file.xsd">
    <trip id="23h0" depart="82800.00" from="C0C1" to="B8A8"/>
    <trip id="23h1" depart="82800.00" from="F11F10" to="B10A10"/>
    <trip id="23h2" depart="82800.00" from="A9B9" to="J7K7"/>
    <trip id="23h3" depart="82801.00" from="L4K4" to="K1L1"/>
    <trip id="23h4" depart="82801.00" from="A5B5" to="K7L7"/>
    <trip id="23h5" depart="82803.00" from="B11B10" to="C10C11"/>
    <trip id="23h6" depart="82803.00" from="B11B10" to="B2A2"/>
    <trip id="23h7" depart="82805.00" from="D11D10" to="C10C11"/>
    <trip id="23h8" depart="82807.00" from="A3B3" to="B2A2"/>
    <trip id="23h9" depart="82807.00" from="E0E1" to="dKL"/>
    <trip id="23h10" depart="82808.00" from="L10K10" to="K10K11"/>
    <trip id="23h11" depart="82810.00" from="D11D10" to="B10A10"/>
    <trip id="23h12" depart="82810.00" from="L8K8" to="dBA"/>
    <trip id="23h13" depart="82810.00" from="G0G1" to="B1B0"/>
    <trip id="23h14" depart="82813.00" from="J11J10" to="B8A8"/>
    <trip id="23h15" depart="82813.00" from="B11B10" to="K10K11"/>
    <trip id="23h16" depart="82814.00" from="F11F10" to="F1F0"/>
    <trip id="23h17" depart="82814.00" from="E8D8" to="D1D0"/>
    <trip id="23h18" depart="82816.00" from="dLK" to="K7L7"/>
    <trip id="23h19" depart="82816.00" from="E0E1" to="dKL"/>
    <trip id="23h20" depart="82818.00" from="I0I1" to="G9H9"/>
    <trip id="23h21" depart="82818.00" from="A9B9" to="I1I2"/>
    <trip id="23h22" depart="82820.00" from="G0G1" to="dKL"/>
    <trip id="23h23" depart="82821.00" from="B11B10" to="C10C11"/>
    <trip id="23h24" depart="82822.00" from="L4K4" to="C3C4"/>
    <trip id="23h25" depart="82823.00" from="F11F10" to="C10C11"/>
    <trip id="23h26" depart="82823.00" from="L2K2" to="J1J0"/>
    <trip id="23h27" depart="82824.00" from="A3B3" to="K9L9"/>
    <trip id="23h28" depart="82825.00" from="L2K2" to="K9L9"/>
    <trip id="23h29" depart="82826.00" from="L10K10" to="D1D0"/>
    <trip id="23h30" depart="82828.00" from="A9B9" to="D1D0"/>
    <trip id="23h31" depart="82830.00" from="dAB" to="H1H0"/>
    <trip id="23h32" depart="82831.00" from="K0K1" to="D1D0"/>
    <trip id="23h33" depart="82832.00" from="C0C1" to="F1F0"/>
    <trip id="23h34" depart="82833.00" from="H11H10" to="J1J0"/>
    <trip id="23h35" depart="82834.00" from="B11B10" to="G10G11"/>
    <trip id="23h36" depart="82834.00" from="F11F10" to="J1J0"/>
    <trip id="23h37" depart="82835.00" from="L2K2" to="K3L3"/>
    <trip id="23h38" depart="82835.00" from="B11B10" to="K7L7"/>
    <trip id="23h39" depart="82838.00" from="C0C1" to="C10C11"/>
    <trip id="23h40" depart="82838.00" from="F11F10" to="H1H0"/>
    <trip id="23h41" depart="82839.00" from="D6D5" to="K3L3"/>
    <trip id="23h42" depart="82840.00" from="D11D10" to="K10K11"/>
    <trip id="23h43" depart="82841.00" from="E0E1" to="I10I11"/>
    <trip id="23h44" depart="82841.00" from="J11J10" to="B4A4"/>
    <trip id="23h45" depart="82841.00" from="E0E1" to="B6B5"/>
    <trip id="23h46" depart="82842.00" from="A1B1" to="H1H0"/>
    <trip id="23h47" depart="82843.00" from="A7B7" to="B3B2"/>
    <trip id="23h48" depart="82844.00" from="D11D10" to="K10K11"/>
    <trip id="23h49" depart="82845.00" from="K0K1" to="J1J0"/>
    <trip id="23h50" depart="82845.00" from="L2K2" to="K7L7"/>
    <trip id="23h51" depart="82848.00" from="L8K8" to="B8A8"/>
    <trip id="23h52" depart="82848.00" from="L6K6" to="B6A6"/>
    <trip id="23h53" depart="82849.00" from="dAB" to="B2A2"/>
    <trip id="23h54" depart="82850.00" from="B11B10" to="K10K11"/>
    <trip id="23h55" depart="82852.00" from="A9B9" to="B8A8"/>
    <trip id="23h56" depart="82852.00" from="H11H10" to="C10C11"/>
    <trip id="23h57" depart="82853.00" from="dAB" to="G10G11"/>
    <trip id="23h58" depart="82854.00" from="J11J10" to="B1B0"/>
    <trip id="23h59" depart="82856.00" from="A1B1" to="F6E6"/>
    <trip id="23h60" depart="82858.00" from="A7B7" to="D1D0"/>
    <trip id="23h61" depart="82859.00" from="A1B1" to="F1F0"/>
    <trip id="23h62" depart="82859.00" from="dLK" to="K7L7"/>
    <trip id="23h63" depart="82860.00" from="L2K2" to="G10G11"/>
    <trip id="23h64" depart="82860.00" from="D2C2" to="D1D0"/>
    <trip id="23h65" depart="82864.00" from="dLK" to="dBA"/>
    <trip id="23h66" depart="82868.00" from="L2K2" to="K1L1"/>
    <trip id="23h67" depart="82869.00" from="G9G10" to="I10I11"/>
    <trip id="23h68" depart="82871.00" from="A3B3" to="J1J0"/>
    <trip id="23h69" depart="82872.00" from="J11J10" to="K9L9"/>
    <trip id="23h70" depart="82872.00" from="L4K4" to="C10C11"/>
    <trip id="23h71" depart="82873.00" from="L8K8" to="J1J0"/>
    <trip id="23h72" depart="82873.00" from="L4K4" to="K9L9"/>
    <trip id="23h73" depart="82876.00" from="J11J10" to="G2F2"/>
    <trip id="23h74" depart="82878.00" from="C0C1" to="K3L3"/>
    <trip id="23h75" depart="82880.00" from="H11H10" to="G10G11"/>
    <trip id="23h76" depart="82881.00" from="L8K8" to="I10I11"/>
    <trip id="23h77" depart="82881.00" from="L4K4" to="dBA"/>
    <trip id="23h78" depart="82882.00" from="L8K8" to="B4A4"/>
    <trip id="23h79" depart="82883.00" from="G0G1" to="F1F0"/>
    <trip id="23h80" depart="82883.00" from="E0E1" to="F1F0"/>
    <trip id="23h81" depart="82883.00" from="K0K1" to="H1H0"/>
    <trip id="23h82" depart="82884.00" from="L4K4" to="B8A8"/>
    <trip id="23h83" depart="82885.00" from="L2K2" to="B6A6"/>
    <trip id="23h84" depart="82885.00" from="L6K6" to="B4A4"/>
    <trip id="23h85" depart="82886.00" from="A1B1" to="K5L5"/>
    <trip id="23h86" depart="82886.00" from="L2K2" to="H1H0"/>
    <trip id="23h87" depart="82887.00" from="L4K4" to="K9L9"/>
    <trip id="23h88" depart="82887.00" from="G0G1" to="E7E8"/>
    <trip id="23h89" depart="82888.00" from="A3B3" to="J1J0"/>
    <trip id="23h90" depart="82888.00" from="C0C1" to="J1J0"/>
    <trip id="23h91" depart="82889.00" from="L10K10" to="K7L7"/>
    <trip id="23h92" depart="82890.00" from="F11F10" to="K10K11"/>
    <trip id="23h93" depart="82890.00" from="L6K6" to="B2A2"/>
    <trip id="23h94" depart="82890.00" from="L10K10" to="K5L5"/>
    <trip id="23h95" depart="82893.00" from="dAB" to="K7L7"/>
    <trip id="23h96" depart="82894.00" from="L8K8" to="I10I11"/>
    <trip id="23h97" depart="82894.00" from="L2K2" to="B8A8"/>
    <trip id="23h98" depart="82895.00" from="A3B3" to="B4A4"/>
    <trip id="23h99" depart="82896.00" from="E0E1" to="I6I7"/>
    <trip id="23h100" depart="82896.00" from="C5D5" to="B6A6"/>
    <trip id="23h101" depart="82897.00" from="L2K2" to="B6A6"/>
    <trip id="23h102" depart="82897.00" from="L6K6" to="B1B0"/>
    <trip id="23h103" depart="82897.00" from="dAB" to="K7L7"/>
    <trip id="23h104" depart="82898.00" from="D11D10" to="K5L5"/>
    <trip id="23h105" depart="82898.00" from="L6K6" to="B8A8"/>
    <trip id="23h106" depart="82902.00" from="F11F10" to="C7D7"/>
    <trip id="23h107" depart="82902.00" from="H11H10" to="D1D0"/>
    <trip id="23h108" depart="82902.00" from="L6K6" to="B1B0"/>
    <trip id="23h109" depart="82904.00" from="A5B5" to="K9L9"/>
    <trip id="23h110" depart="82906.00" from="A5B5" to="K10K11"/>
    <trip id="23h111" depart="82909.00" from="L6K6" to="B2A2"/>
    <trip id="23h112" depart="82909.00" from="D11D10" to="K3L3"/>
    <trip id="23h113" depart="82913.00" from="L6K6" to="K7L7"/>
    <trip id="23h114" depart="82914.00" from="A3B3" to="G8G9"/>
    <trip id="23h115" depart="82914.00" from="dAB" to="K7L7"/>
    <trip id="23h116" depart="82915.00" from="A3B3" to="C10B10"/>
    <trip id="23h117" depart="82916.00" from="F11F10" to="K5L5"/>
    <trip id="23h118" depart="82917.00" from="H11H10" to="B8A8"/>
    <trip id="23h119" depart="82917.00" from="dLK" to="B1B0"/>
    <trip id="23h120" depart="82918.00" from="L4K4" to="D1D0"/>
    <trip id="23h121" depart="82919.00" from="H2G2" to="K5L5"/>
    <trip id="23h122" depart="82920.00" from="L2K2" to="G10G11"/>
    <trip id="23h123" depart="82920.00" from="A9B9" to="B10B9"/>
    <trip id="23h124" depart="82922.00" from="J10I10" to="K7K8"/>
    <trip id="23h125" depart="82923.00" from="K0K1" to="D1D0"/>
    <trip id="23h126" depart="82923.00" from="L8K8" to="D7E7"/>
    <trip id="23h127" depart="82924.00" from="J11J10" to="E10E11"/>
    <trip id="23h128" depart="82924.00" from="A3B3" to="K3d"/>
    <trip id="23h129" depart="82928.00" from="K0K1" to="K7L7"/>
    <trip id="23h130" depart="82928.00" from="H11H10" to="K9L9"/>
    <trip id="23h131" depart="82929.00" from="I0I1" to="E10E11"/>
    <trip id="23h132" depart="82929.00" from="D11D10" to="dKL"/>
    <trip id="23h133" depart="82930.00" from="dLK" to="J1J0"/>
    <trip id="23h134" depart="82931.00" from="A5B5" to="B4A4"/>
    <trip id="23h135" depart="82933.00" from="A3B3" to="J1J0"/>
    <trip id="23h136" depart="82935.00" from="A3B3" to="F1F0"/>
    <trip id="23h137" depart="82936.00" from="C0C1" to="E10E11"/>
    <trip id="23h138" depart="82938.00" from="dAB" to="H1H0"/>
    <trip id="23h139" depart="82938.00" from="G0G1" to="K9L9"/>
    <trip id="23h140" depart="82939.00" from="H11H10" to="K3L3"/>
    <trip id="23h141" depart="82941.00" from="A7B7" to="D1D0"/>
    <trip id="23h142" depart="82943.00" from="G0G1" to="dKL"/>
    <trip id="23h143" depart="82944.00" from="dAB" to="B2A2"/>
    <trip id="23h144" depart="82945.00" from="D11D10" to="B4A4"/>
    <trip id="23h145" depart="82945.00" from="A7B7" to="B6A6"/>
    <trip id="23h146" depart="82951.00" from="F11F10" to="K1L1"/>
    <trip id="23h147" depart="82951.00" from="L2K2" to="B10A10"/>
    <trip id="23h148" depart="82952.00" from="I0I1" to="H1H0"/>
    <trip id="23h149" depart="82953.00" from="I0I1" to="B2A2"/>
    <trip id="23h150" depart="82956.00" from="K0K1" to="B6A6"/>
    <trip id="23h151" depart="82957.00" from="K0K1" to="K10K11"/>
    <trip id="23h152" depart="82957.00" from="A5B5" to="D1D0"/>
    <trip id="23h153" depart="82959.00" from="F1G1" to="K1L1"/>
    <trip id="23h154" depart="82959.00" from="I0I1" to="B1B0"/>
    <trip id="23h155" depart="82960.00" from="H11H10" to="K5L5"/>
    <trip id="23h156" depart="82961.00" from="G0G1" to="K5L5"/>
    <trip id="23h157" depart="82961.00" from="D11D10" to="B1B0"/>
    <trip id="23h158" depart="82962.00" from="dAB" to="B10A10"/>
    <trip id="23h159" depart="82964.00" from="A1B1" to="C1D1"/>
    <trip id="23h160" depart="82965.00" from="A9B9" to="B2A2"/>
    <trip id="23h161" depart="82965.00" from="I4d" to="K1L1"/>
    <trip id="23h162" depart="82966.00" from="L10K10" to="E7F7"/>
    <trip id="23h163" depart="82966.00" from="H10H9" to="C10C11"/>
    <trip id="23h164" depart="82967.00" from="dAB" to="K9L9"/>
    <trip id="23h165" depart="82970.00" from="L10K10" to="B6A6"/>
    <trip id="23h166" depart="82971.00" from="dAB" to="dKL"/>
    <trip id="23h167" depart="82973.00" from="dLK" to="G10G11"/>
    <trip id="23h168" depart="82976.00" from="A1B1" to="K7L7"/>
    <trip id="23h169" depart="82977.00" from="H11H10" to="E10E11"/>
    <trip id="23h170" depart="82978.00" from="H8H7" to="B10A10"/>
    <trip id="23h171" depart="82978.00" from="L4K4" to="K10K11"/>
    <trip id="23h172" depart="82978.00" from="A7B7" to="B6A6"/>
    <trip id="23h173" depart="82980.00" from="E0E1" to="I10H10"/>
    <trip id="23h174" depart="82980.00" from="A1B1" to="B6A6"/>
    <trip id="23h175" depart="82981.00" from="H11H10" to="B1B0"/>
    <trip id="23h176" depart="82981.00" from="A3B3" to="dBA"/>
    <trip id="23h177" depart="82981.00" from="dAB" to="D1D0"/>
    <trip id="23h178" depart="82982.00" from="A7B7" to="B8A8"/>
    <trip id="23h179" depart="82983.00" from="F11F10" to="K7L7"/>
    <trip id="23h180" depart="82984.00" from="C0C1" to="dKL"/>
    <trip id="23h181" depart="82984.00" from="J11J10" to="K5L5"/>
    <trip id="23h182" depart="82985.00" from="A7B7" to="K1L1"/>
    <trip id="23h183" depart="82985.00" from="D11D10" to="E10E11"/>
    <trip id="23h184" depart="82986.00" from="D9D8" to="B2A2"/>
    <trip id="23h185" depart="82986.00" from="L8K8" to="K9L9"/>
    <trip id="23h186" depart="82987.00" from="F11F10" to="F1F0"/>
    <trip id="23h187" depart="82987.00" from="B3C3" to="B8A8"/>
    <trip id="23h188" depart="82992.00" from="dLK" to="G10G11"/>
    <trip id="23h189" depart="82994.00" from="L2K2" to="K10K11"/>
    <trip id="23h190" depart="82994.00" from="dLK" to="K10K11"/>
    <trip id="23h191" depart="82994.00" from="C0C1" to="H1H0"/>
    <trip id="23h192" depart="82995.00" from="A5B5" to="F1F0"/>
    <trip id="23h193" depart="82998.00" from="J11J10" to="B6A6"/>
    <trip id="23h194" depart="82999.00" from="A5B5" to="K9L9"/>
    <trip id="23h195" depart="83001.00" from="A7B7" to="B2A2"/>
    <trip id="23h196" depart="83003.00" from="E0E1" to="B10A10"/>
    <trip id="23h197" depart="83004.00" from="A1B1" to="K3L3"/>
    <trip id="23h198" depart="83005.00" from="L10K10" to="H2G2"/>
    <trip id="23h199" depart="83005.00" from="L6K6" to="K3L3"/>
    <trip id="23h200" depart="83007.00" from="D5E5" to="C10C11"/>
    <trip id="23h201" depart="83008.00" from="dLK" to="K5L5"/>
    <trip id="23h202" depart="83010.00" from="H11H10" to="C10C11"/>
    <trip id="23h203" depart="83011.00" from="L2K2" to="K1L1"/>
    <trip id="23h204" depart="83011.00" from="H11H10" to="B8A8"/>
    <trip id="23h205" depart="83012.00" from="A5B5" to="K5L5"/>
    <trip id="23h206" depart="83013.00" from="dKJ" to="B6A6"/>
    <trip id="23h207" depart="83014.00" from="G0G1" to="B4A4"/>
    <trip id="23h208" depart="83015.00" from="K4J4" to="K5L5"/>
    <trip id="23h209" depart="83015.00" from="E0E1" to="K1L1"/>
    <trip id="23h210" depart="83015.00" from="D11D10" to="K9L9"/>
    <trip id="23h211" depart="83016.00" from="J7K7" to="F1F0"/>
    <trip id="23h212" depart="83017.00" from="A5B5" to="K3L3"/>
    <trip id="23h213" depart="83017.00" from="I0I1" to="I7I8"/>
    <trip id="23h214" depart="83019.00" from="L8K8" to="dHG"/>
    <trip id="23h215" depart="83020.00" from="A3B3" to="C10C11"/>
    <trip id="23h216" depart="83020.00" from="A3B3" to="K5L5"/>
    <trip id="23h217" depart="83021.00" from="H11H10" to="J1J0"/>
    <trip id="23h218" depart="83022.00" from="K8K9" to="K1L1"/>
    <trip id="23h219" depart="83022.00" from="A5B5" to="F1F0"/>
    <trip id="23h220" depart="83024.00" from="L4K4" to="C10C11"/>
    <trip id="23h221" depart="83024.00" from="L10K10" to="I10I11"/>
    <trip id="23h222" depart="83024.00" from="G0G1" to="E10E11"/>
    <trip id="23h223" depart="83025.00" from="I0I1" to="K1L1"/>
    <trip id="23h224" depart="83025.00" from="L6K6" to="B8A8"/>
    <trip id="23h225" depart="83027.00" from="E0E1" to="G8G9"/>
    <trip id="23h226" depart="83027.00" from="G0G1" to="C10C11"/>
    <trip id="23h227" depart="83028.00" from="A9B9" to="I10I11"/>
    <trip id="23h228" depart="83029.00" from="F11F10" to="B8A8"/>
    <trip id="23h229" depart="83029.00" from="K0K1" to="K7L7"/>
    <trip id="23h230" depart="83029.00" from="H11H10" to="B8A8"/>
    <trip id="23h231" depart="83030.00" from="dLK" to="K1L1"/>
    <trip id="23h232" depart="83030.00" from="dAB" to="K9L9"/>
    <trip id="23h233" depart="83030.00" from="A5B5" to="B4A4"/>
    <trip id="23h234" depart="83030.00" from="I0I1" to="F1F0"/>
    <trip id="23h235" depart="83031.00" from="A9B9" to="K5L5"/>
    <trip id="23h236" depart="83033.00" from="L6K6" to="D1D0"/>
    <trip id="23h237" depart="83033.00" from="B11B10" to="E10E11"/>
    <trip id="23h238" depart="83034.00" from="F10E10" to="F8E8"/>
    <trip id="23h239" depart="83034.00" from="L6K6" to="dKL"/>
    <trip id="23h240" depart="83035.00" from="A3B3" to="K9L9"/>
    <trip id="23h241" depart="83036.00" from="G0G1" to="B4A4"/>
    <trip id="23h242" depart="83036.00" from="K0K1" to="B6A6"/>
    <trip id="23h243" depart="83037.00" from="J11J10" to="B8A8"/>
    <trip id="23h244" depart="83037.00" from="C0C1" to="B4A4"/>
    <trip id="23h245" depart="83039.00" from="dLK" to="H1H0"/>
    <trip id="23h246" depart="83039.00" from="K0K1" to="C10C11"/>
    <trip id="23h247" depart="83040.00" from="dLK" to="B8A8"/>
    <trip id="23h248" depart="83041.00" from="L10K10" to="dBA"/>
    <trip id="23h249" depart="83042.00" from="B11B10" to="B8A8"/>
    <trip id="23h250" depart="83042.00" from="dAB" to="B6A6"/>
    <trip id="23h251" depart="83043.00" from="I0I1" to="dBA"/>
    <trip id="23h252" depart="83043.00" from="C6B6" to="B4A4"/>
    <trip id="23h253" depart="83046.00" from="J10I10" to="dBA"/>
    <trip id="23h254" depart="83047.00" from="L10K10" to="J1J0"/>
    <trip id="23h255" depart="83047.00" from="C0C1" to="B2A2"/>
    <trip id="23h256" depart="83047.00" from="E0E1" to="K1L1"/>
    <trip id="23h257" depart="83048.00" from="G0G1" to="K7L7"/>
    <trip id="23h258" depart="83048.00" from="L6K6" to="C10C11"/>
    <trip id="23h259" depart="83049.00" from="A9B9" to="E10E11"/>
    <trip id="23h260" depart="83049.00" from="I0I1" to="J1J0"/>
    <trip id="23h261" depart="83049.00" from="dAB" to="B4A4"/>
    <trip id="23h262" depart="83050.00" from="A9B9" to="B6A6"/>
    <trip id="23h263" depart="83050.00" from="I0I1" to="K7L7"/>
    <trip id="23h264" depart="83051.00" from="A9B9" to="C10C11"/>
    <trip id="23h265" depart="83051.00" from="L6K6" to="D1D0"/>
    <trip id="23h266" depart="83052.00" from="H11H10" to="B6A6"/>
    <trip id="23h267" depart="83052.00" from="L2K2" to="K10K11"/>
    <trip id="23h268" depart="83052.00" from="D11D10" to="H1H0"/>
    <trip id="23h269" depart="83054.00" from="L8K8" to="K1L1"/>
    <trip id="23h270" depart="83056.00" from="E0E1" to="E1F1"/>
    <trip id="23h271" depart="83057.00" from="C0C1" to="H1H0"/>
    <trip id="23h272" depart="83058.00" from="C0C1" to="B4A4"/>
    <trip id="23h273" depart="83058.00" from="L8K8" to="D1D0"/>
    <trip id="23h274" depart="83059.00" from="L4K4" to="C7d"/>
    <trip id="23h275" depart="83059.00" from="L8K8" to="B4A4"/>
    <trip id="23h276" depart="83061.00" from="A9B9" to="K7L7"/>
    <trip id="23h277" depart="83062.00" from="E0E1" to="I10I11"/>
    <trip id="23h278" depart="83064.00" from="L2K2" to="K3L3"/>
    <trip id="23h279" depart="83064.00" from="dAB" to="J4J3"/>
    <trip id="23h280" depart="83065.00" from="B5B4" to="K5L5"/>
    <trip id="23h281" depart="83066.00" from="H11H10" to="K10K11"/>
    <trip id="23h282" depart="83067.00" from="dLK" to="J1J0"/>
    <trip id="23h283" depart="83069.00" from="L10K10" to="I10I11"/>
    <trip id="23h284" depart="83070.00" from="A7B7" to="C10C11"/>
    <trip id="23h285" depart="83070.00" from="E0E1" to="K3L3"/>
    <trip id="23h286" depart="83072.00" from="L8K8" to="G6G7"/>
    <trip id="23h287" depart="83072.00" from="L6K6" to="B4A4"/>
    <trip id="23h288" depart="83073.00" from="C0C1" to="K3L3"/>
    <trip id="23h289" depart="83074.00" from="J11J10" to="J1J0"/>
    <trip id="23h290" depart="83074.00" from="A9B9" to="E10E11"/>
    <trip id="23h291" depart="83074.00" from="D11D10" to="K7L7"/>
    <trip id="23h292" depart="83078.00" from="L8K8" to="C10B10"/>
    <trip id="23h293" depart="83078.00" from="dLK" to="K10K11"/>
    <trip id="23h294" depart="83078.00" from="K0K1" to="F1F0"/>
    <trip id="23h295" depart="83081.00" from="G1H1" to="B6A6"/>
    <trip id="23h296" depart="83081.00" from="K0K1" to="K9L9"/>
    <trip id="23h297" depart="83081.00" from="H11H10" to="K1L1"/>
    <trip id="23h298" depart="83081.00" from="C0C1" to="B8A8"/>
    <trip id="23h299" depart="83082.00" from="A9B9" to="B10A10"/>
    <trip id="23h300" depart="83082.00" from="L2K2" to="B1B0"/>
    <trip id="23h301" depart="83083.00" from="L4K4" to="B6A6"/>
    <trip id="23h302" depart="83084.00" from="dAB" to="B4A4"/>
    <trip id="23h303" depart="83085.00" from="K0K1" to="K7L7"/>
    <trip id="23h304" depart="83086.00" from="C0C1" to="D1D0"/>
    <trip id="23h305" depart="83087.00" from="K0K1" to="B8A8"/>
    <trip id="23h306" depart="83087.00" from="J11J10" to="B4A4"/>
    <trip id="23h307" depart="83088.00" from="G0G1" to="B8A8"/>
    <trip id="23h308" depart="83088.00" from="B11B10" to="J1J0"/>
    <trip id="23h309" depart="83089.00" from="F11F10" to="I10I11"/>
    <trip id="23h310" depart="83089.00" from="A5B5" to="J1J0"/>
    <trip id="23h311" depart="83090.00" from="B11B10" to="G10G11"/>
    <trip id="23h312" depart="83092.00" from="A7B7" to="B4A4"/>
    <trip id="23h313" depart="83094.00" from="dAB" to="K7L7"/>
    <trip id="23h314" depart="83099.00" from="A7B7" to="K10K11"/>
    <trip id="23h315" depart="83100.00" from="L4K4" to="B2A2"/>
    <trip id="23h316" depart="83102.00" from="B3B2" to="J1J0"/>
    <trip id="23h317" depart="83105.00" from="dAB" to="J1J0"/>
    <trip id="23h318" depart="83106.00" from="H11H10" to="F1F0"/>
    <trip id="23h319" depart="83106.00" from="B11B10" to="B8A8"/>
    <trip id="23h320" depart="83107.00" from="K0K1" to="F1F0"/>
    <trip id="23h321" depart="83108.00" from="L8K8" to="B6A6"/>
    <trip id="23h322" depart="83109.00" from="A3B3" to="K10K11"/>
    <trip id="23h323" depart="83109.00" from="H11H10" to="K1L1"/>
    <trip id="23h324" depart="83110.00" from="A3B3" to="K5L5"/>
    <trip id="23h325" depart="83111.00" from="K0K1" to="H1H0"/>
    <trip id="23h326" depart="83112.00" from="dAB" to="B2A2"/>
    <trip id="23h327" depart="83112.00" from="L2K2" to="F1F0"/>
    <trip id="23h328" depart="83114.00" from="I3I4" to="H1H0"/>
    <trip id="23h329" depart="83116.00" from="A5B5" to="K1L1"/>
    <trip id="23h330" depart="83117.00" from="J11J10" to="K9L9"/>
    <trip id="23h331" depart="83118.00" from="B11B10" to="B8A8"/>
    <trip id="23h332" depart="83120.00" from="A3B3" to="B10A10"/>
    <trip id="23h333" depart="83120.00" from="I0I1" to="F1F0"/>
    <trip id="23h334" depart="83123.00" from="E0E1" to="B1B0"/>
    <trip id="23h335" depart="83124.00" from="dLK" to="D1D0"/>
    <trip id="23h336" depart="83126.00" from="J11J10" to="B6B5"/>
    <trip id="23h337" depart="83127.00" from="A3B3" to="I10I11"/>
    <trip id="23h338" depart="83128.00" from="I0I1" to="B1B0"/>
    <trip id="23h339" depart="83128.00" from="L10K10" to="K10K11"/>
    <trip id="23h340" depart="83129.00" from="F4F3" to="dKL"/>
    <trip id="23h341" depart="83131.00" from="G0G1" to="J1J0"/>
    <trip id="23h342" depart="83131.00" from="L4K4" to="H10G10"/>
    <trip id="23h343" depart="83132.00" from="H11H10" to="B8A8"/>
    <trip id="23h344" depart="83133.00" from="A7B7" to="G10G11"/>
    <trip id="23h345" depart="83134.00" from="K0K1" to="K10K11"/>
    <trip id="23h346" depart="83137.00" from="A5B5" to="B4A4"/>
    <trip id="23h347" depart="83138.00" from="B11B10" to="B1B0"/>
    <trip id="23h348" depart="83138.00" from="E0E1" to="dKL"/>
    <trip id="23h349" depart="83139.00" from="I6I7" to="H1H0"/>
    <trip id="23h350" depart="83139.00" from="B11B10" to="B10A10"/>
    <trip id="23h351" depart="83140.00" from="A5B5" to="C10C11"/>
    <trip id="23h352" depart="83142.00" from="C0C1" to="dBA"/>
    <trip id="23h353" depart="83143.00" from="A5B5" to="B1B0"/>
    <trip id="23h354" depart="83144.00" from="L6K6" to="B8A8"/>
    <trip id="23h355" depart="83144.00" from="K0K1" to="K5L5"/>
    <trip id="23h356" depart="83144.00" from="dAB" to="G10G11"/>
    <trip id="23h357" depart="83146.00" from="G0G1" to="J1J0"/>
    <trip id="23h358" depart="83148.00" from="L4K4" to="G10G11"/>
    <trip id="23h359" depart="83149.00" from="B11B10" to="I10I11"/>
    <trip id="23h360" depart="83150.00" from="C0C1" to="B8A8"/>
    <trip id="23h361" depart="83152.00" from="L4K4" to="G10G11"/>
    <trip id="23h362" depart="83153.00" from="A5B5" to="K9L9"/>
    <trip id="23h363" depart="83155.00" from="A7B7" to="B8A8"/>
    <trip id="23h364" depart="83157.00" from="L10K10" to="K10K11"/>
    <trip id="23h365" depart="83157.00" from="A9B9" to="B2A2"/>
    <trip id="23h366" depart="83157.00" from="L8K8" to="H4H3"/>
    <trip id="23h367" depart="83157.00" from="E1F1" to="K3L3"/>
    <trip id="23h368" depart="83157.00" from="C0C1" to="B4A4"/>
    <trip id="23h369" depart="83158.00" from="K0K1" to="K7L7"/>
    <trip id="23h370" depart="83161.00" from="L4K4" to="K7L7"/>
    <trip id="23h371" depart="83161.00" from="dAB" to="dBA"/>
    <trip id="23h372" depart="83161.00" from="F11F10" to="C10C11"/>
    <trip id="23h373" depart="83161.00" from="E0E1" to="F1F0"/>
    <trip id="23h374" depart="83164.00" from="A3B3" to="H1H0"/>
    <trip id="23h375" depart="83164.00" from="C0C1" to="K1L1"/>
    <trip id="23h376" depart="83165.00" from="L2K2" to="B1B0"/>
    <trip id="23h377" depart="83167.00" from="G0G1" to="K3L3"/>
    <trip id="23h378" depart="83167.00" from="dAB" to="H1H0"/>
    <trip id="23h379" depart="83169.00" from="A3B3" to="K5L5"/>
    <trip id="23h380" depart="83169.00" from="A7B7" to="B2A2"/>
    <trip id="23h381" depart="83170.00" from="J11J10" to="K1L1"/>
    <trip id="23h382" depart="83172.00" from="A7B7" to="C10C11"/>
    <trip id="23h383" depart="83173.00" from="J11J10" to="E10E11"/>
    <trip id="23h384" depart="83173.00" from="L6K6" to="K3L3"/>
    <trip id="23h385" depart="83174.00" from="L6K6" to="B4A4"/>
    <trip id="23h386" depart="83175.00" from="I0I1" to="K7L7"/>
    <trip id="23h387" depart="83175.00" from="dAB" to="B6A6"/>
    <trip id="23h388" depart="83176.00" from="L4K4" to="B1B0"/>
    <trip id="23h389" depart="83176.00" from="A3B3" to="C8C9"/>
    <trip id="23h390" depart="83177.00" from="L10K10" to="H1H0"/>
    <trip id="23h391" depart="83181.00" from="L4K4" to="K10K11"/>
    <trip id="23h392" depart="83182.00" from="E0E1" to="B4A4"/>
    <trip id="23h393" depart="83183.00" from="E4E5" to="dBA"/>
    <trip id="23h394" depart="83184.00" from="A3B3" to="K3L3"/>
    <trip id="23h395" depart="83185.00" from="L2K2" to="E10E11"/>
    <trip id="23h396" depart="83185.00" from="H11H10" to="B4A4"/>
    <trip id="23h397" depart="83185.00" from="L10K10" to="E10E11"/>
    <trip id="23h398" depart="83186.00" from="I0I1" to="B1B0"/>
    <trip id="23h399" depart="83186.00" from="G8F8" to="K3L3"/>
    <trip id="23h400" depart="83187.00" from="L2K2" to="D1D0"/>
    <trip id="23h401" depart="83187.00" from="K0K1" to="F1F0"/>
    <trip id="23h402" depart="83188.00" from="C9D9" to="dKL"/>
    <trip id="23h403" depart="83188.00" from="L4K4" to="B6A6"/>
    <trip id="23h404" depart="83189.00" from="dBC" to="dBA"/>
    <trip id="23h405" depart="83189.00" from="K1K2" to="B2A2"/>
    <trip id="23h406" depart="83189.00" from="B11B10" to="H1H0"/>
    <trip id="23h407" depart="83190.00" from="I0I1" to="K10K11"/>
    <trip id="23h408" depart="83190.00" from="A9B9" to="C10C11"/>
    <trip id="23h409" depart="83191.00" from="K0K1" to="B10A10"/>
    <trip id="23h410" depart="83191.00" from="L8K8" to="J7J6"/>
    <trip id="23h411" depart="83192.00" from="D11D10" to="K9L9"/>
    <trip id="23h412" depart="83192.00" from="B11B10" to="H1H0"/>
    <trip id="23h413" depart="83194.00" from="I0I1" to="C10C11"/>
    <trip id="23h414" depart="83194.00" from="E0E1" to="dKL"/>
    <trip id="23h415" depart="83200.00" from="L2K2" to="B10A10"/>
    <trip id="23h416" depart="83201.00" from="dAB" to="dKL"/>
    <trip id="23h417" depart="83201.00" from="L10K10" to="E10E11"/>
    <trip id="23h418" depart="83203.00" from="dLK" to="H1H0"/>
    <trip id="23h419" depart="83203.00" from="C0C1" to="E2E3"/>
    <trip id="23h420" depart="83204.00" from="H11H10" to="B4A4"/>
    <trip id="23h421" depart="83209.00" from="L8K8" to="B8A8"/>
    <trip id="23h422" depart="83209.00" from="I7J7" to="B8A8"/>
    <trip id="23h423" depart="83210.00" from="A7B7" to="K10K11"/>
    <trip id="23h424" depart="83210.00" from="L6K6" to="K10K11"/>
    <trip id="23h425" depart="83210.00" from="F11F10" to="B6A6"/>
    <trip id="23h426" depart="83211.00" from="C3C4" to="E10E11"/>
    <trip id="23h427" depart="83212.00" from="F11F10" to="H7H6"/>
    <trip id="23h428" depart="83215.00" from="A1B1" to="J1J0"/>
    <trip id="23h429" depart="83216.00" from="A9B9" to="C10C11"/>
    <trip id="23h430" depart="83216.00" from="K0K1" to="D1D0"/>
    <trip id="23h431" depart="83217.00" from="A9B9" to="D1D0"/>
    <trip id="23h432" depart="83219.00" from="dLK" to="J1J0"/>
    <trip id="23h433" depart="83220.00" from="F11F10" to="G2G3"/>
    <trip id="23h434" depart="83221.00" from="G0G1" to="G6F6"/>
    <trip id="23h435" depart="83223.00" from="dAB" to="K10K11"/>
    <trip id="23h436" depart="83223.00" from="G0G1" to="B1B0"/>
    <trip id="23h437" depart="83224.00" from="J11J10" to="H1H0"/>
    <trip id="23h438" depart="83225.00" from="J11J10" to="D1D0"/>
    <trip id="23h439" depart="83226.00" from="F11F10" to="B6A6"/>
    <trip id="23h440" depart="83229.00" from="G0G1" to="D6C6"/>
    <trip id="23h441" depart="83230.00" from="L4K4" to="K5L5"/>
    <trip id="23h442" depart="83232.00" from="dAB" to="I10I11"/>
    <trip id="23h443" depart="83233.00" from="A5B5" to="K5L5"/>
    <trip id="23h444" depart="83233.00" from="L4K4" to="K9L9"/>
    <trip id="23h445" depart="83233.00" from="A7B7" to="B4A4"/>
    <trip id="23h446" depart="83235.00" from="A1B1" to="dKL"/>
    <trip id="23h447" depart="83235.00" from="L10K10" to="K5L5"/>
    <trip id="23h448" depart="83237.00" from="A1B1" to="K1L1"/>
    <trip id="23h449" depart="83238.00" from="J11J10" to="F1F0"/>
    <trip id="23h450" depart="83241.00" from="L8K8" to="B2A2"/>
    <trip id="23h451" depart="83241.00" from="J11J10" to="K5L5"/>
    <trip id="23h452" depart="83242.00" from="D11D10" to="K3d"/>
    <trip id="23h453" depart="83242.00" from="dAB" to="K3L3"/>
    <trip id="23h454" depart="83243.00" from="G0G1" to="B5B4"/>
    <trip id="23h455" depart="83243.00" from="dLK" to="K5L5"/>