<?xml version="1.0" encoding="UTF-8"?>
<!-- generated on 2020-12-09 03:21:19.825617 by randomTrips.py v1_7_0+0000-714814baed
  options: -n .\data/grid01-bcn_100.net.xml <doubleminus>prefix=1h <doubleminus>fringe-factor 100 -b 3600 -e 7200 -p5.286343612334802 <doubleminus>binomial 10 -odata/random/random_h_1-bcn_100.trips.rou.xml <doubleminus>edge-permission=passenger
-->
<routes xmlns:xsi="http://www.w3.org/2001/XMLSchema-instance" xsi:noNamespaceSchemaLocation="http://sumo.dlr.de/xsd/routes_file.xsd">
    <trip id="1h0" depart="3601.00" from="L4K4" to="K1L1"/>
    <trip id="1h1" depart="3609.00" from="L10K10" to="K10K11"/>
    <trip id="1h2" depart="3612.00" from="D11D10" to="B10A10"/>
    <trip id="1h3" depart="3626.00" from="L4K4" to="C3C4"/>
    <trip id="1h4" depart="3628.00" from="L2K2" to="J1J0"/>
    <trip id="1h5" depart="3628.00" from="A3B3" to="K9L9"/>
    <trip id="1h6" depart="3635.00" from="dAB" to="H1H0"/>
    <trip id="1h7" depart="3638.00" from="C0C1" to="F1F0"/>
    <trip id="1h8" depart="3641.00" from="L2K2" to="K3L3"/>
    <trip id="1h9" depart="3646.00" from="D6D5" to="K3L3"/>
    <trip id="1h10" depart="3657.00" from="dAB" to="B2A2"/>
    <trip id="1h11" depart="3661.00" from="H11H10" to="C10C11"/>
    <trip id="1h12" depart="3666.00" from="F6E6" to="I10I11"/>
    <trip id="1h13" depart="3685.00" from="L4K4" to="K9L9"/>
    <trip id="1h14" depart="3692.00" from="H11H10" to="G10G11"/>
    <trip id="1h15" depart="3699.00" from="L6K6" to="B4A4"/>
    <trip id="1h16" depart="3700.00" from="L4K4" to="B8A8"/>
    <trip id="1h17" depart="3709.00" from="L8K8" to="I10I11"/>
    <trip id="1h18" depart="3713.00" from="C5D5" to="B6A6"/>
    <trip id="1h19" depart="3713.00" from="L2K2" to="B6A6"/>
    <trip id="1h20" depart="3714.00" from="dAB" to="K7L7"/>
    <trip id="1h21" depart="3734.00" from="A3B3" to="C10B10"/>
    <trip id="1h22" depart="3736.00" from="H11H10" to="B8A8"/>
    <trip id="1h23" depart="3738.00" from="L4K4" to="D1D0"/>
    <trip id="1h24" depart="3775.00" from="H7H6" to="dBA"/>
    <trip id="1h25" depart="3778.00" from="I0I1" to="B2A2"/>
    <trip id="1h26" depart="3782.00" from="K0K1" to="K10K11"/>
    <trip id="1h27" depart="3790.00" from="A1B1" to="C1D1"/>
    <trip id="1h28" depart="3792.00" from="A9B9" to="B2A2"/>
    <trip id="1h29" depart="3799.00" from="dAB" to="dKL"/>
    <trip id="1h30" depart="3805.00" from="H11H10" to="E10E11"/>
    <trip id="1h31" depart="3805.00" from="H8H7" to="B10A10"/>
    <trip id="1h32" depart="3806.00" from="L4K4" to="K10K11"/>
    <trip id="1h33" depart="3808.00" from="A9B9" to="G6F6"/>
    <trip id="1h34" depart="3815.00" from="D11D10" to="E10E11"/>
    <trip id="1h35" depart="3826.00" from="C0C1" to="H1H0"/>
    <trip id="1h36" depart="3835.00" from="A7B7" to="K5L5"/>
    <trip id="1h37" depart="3844.00" from="L2K2" to="K1L1"/>
    <trip id="1h38" depart="3846.00" from="dKJ" to="B6A6"/>
    <trip id="1h39" depart="3848.00" from="G0G1" to="B4A4"/>
    <trip id="1h40" depart="3848.00" from="K4J4" to="K5L5"/>
    <trip id="1h41" depart="3850.00" from="J7K7" to="F1F0"/>
    <trip id="1h42" depart="3855.00" from="A3B3" to="C10C11"/>
    <trip id="1h43" depart="3864.00" from="A9B9" to="I10I11"/>
    <trip id="1h44" depart="3866.00" from="F11F10" to="B8A8"/>
    <trip id="1h45" depart="3866.00" from="K0K1" to="K7L7"/>
    <trip id="1h46" depart="3873.00" from="L6K6" to="dKL"/>
    <trip id="1h47" depart="3883.00" from="dAB" to="B6A6"/>
    <trip id="1h48" depart="3889.00" from="E0E1" to="K1L1"/>
    <trip id="1h49" depart="3910.00" from="dAB" to="J4J3"/>
    <trip id="1h50" depart="3911.00" from="B5B4" to="K5L5"/>
    <trip id="1h51" depart="3921.00" from="C0C1" to="K3L3"/>
    <trip id="1h52" depart="3922.00" from="D11D10" to="K7L7"/>
    <trip id="1h53" depart="3930.00" from="K0K1" to="K9L9"/>
    <trip id="1h54" depart="3940.00" from="A5B5" to="J1J0"/>
    <trip id="1h55" depart="3954.00" from="B3B2" to="J1J0"/>
    <trip id="1h56" depart="3960.00" from="K0K1" to="F1F0"/>
    <trip id="1h57" depart="3962.00" from="A3B3" to="K10K11"/>
    <trip id="1h58" depart="3965.00" from="K0K1" to="H1H0"/>
    <trip id="1h59" depart="3968.00" from="I3I4" to="H1H0"/>
    <trip id="1h60" depart="3972.00" from="B11B10" to="B8A8"/>
    <trip id="1h61" depart="3974.00" from="H11H10" to="B10A10"/>
    <trip id="1h62" depart="3984.00" from="L10K10" to="K10K11"/>
    <trip id="1h63" depart="3990.00" from="K0K1" to="K10K11"/>
    <trip id="1h64" depart="3994.00" from="A5B5" to="B4A4"/>
    <trip id="1h65" depart="3997.00" from="A7B7" to="dKL"/>
    <trip id="1h66" depart="4002.00" from="L6K6" to="B8A8"/>
    <trip id="1h67" depart="4007.00" from="B11B10" to="I10I11"/>
    <trip id="1h68" depart="4021.00" from="L4K4" to="K7L7"/>
    <trip id="1h69" depart="4021.00" from="dAB" to="dBA"/>
    <trip id="1h70" depart="4021.00" from="F11F10" to="C10C11"/>
    <trip id="1h71" depart="4022.00" from="E0E1" to="F1F0"/>
    <trip id="1h72" depart="4030.00" from="A3B3" to="K5L5"/>
    <trip id="1h73" depart="4035.00" from="J11J10" to="E10E11"/>
    <trip id="1h74" depart="4035.00" from="L6K6" to="K3L3"/>
    <trip id="1h75" depart="4049.00" from="L2K2" to="E10E11"/>
    <trip id="1h76" depart="4055.00" from="K1K2" to="B2A2"/>
    <trip id="1h77" depart="4056.00" from="I0I1" to="K10K11"/>
    <trip id="1h78" depart="4057.00" from="E0E1" to="C10C11"/>
    <trip id="1h79" depart="4068.00" from="C0C1" to="F1F0"/>
    <trip id="1h80" depart="4077.00" from="L8K8" to="B8A8"/>
    <trip id="1h81" depart="4084.00" from="A1B1" to="J1J0"/>
    <trip id="1h82" depart="4085.00" from="A9B9" to="C10C11"/>
    <trip id="1h83" depart="4086.00" from="K0K1" to="D1D0"/>
    <trip id="1h84" depart="4093.00" from="dAB" to="K10K11"/>
    <trip id="1h85" depart="4095.00" from="J11J10" to="H1H0"/>
    <trip id="1h86" depart="4105.00" from="A7B7" to="B4A4"/>
    <trip id="1h87" depart="4107.00" from="dLK" to="F10E10"/>
    <trip id="1h88" depart="4110.00" from="L10K10" to="G10G11"/>
    <trip id="1h89" depart="4117.00" from="A5B5" to="B6A6"/>
    <trip id="1h90" depart="4121.00" from="dAB" to="F4E4"/>
    <trip id="1h91" depart="4124.00" from="A5B5" to="B2A2"/>
    <trip id="1h92" depart="4131.00" from="dGF" to="K5L5"/>
    <trip id="1h93" depart="4141.00" from="G0G1" to="B10A10"/>
    <trip id="1h94" depart="4143.00" from="B11B10" to="B2A2"/>
    <trip id="1h95" depart="4152.00" from="dLK" to="B10A10"/>
    <trip id="1h96" depart="4153.00" from="L10K10" to="dCB"/>
    <trip id="1h97" depart="4168.00" from="L10K10" to="dKL"/>
    <trip id="1h98" depart="4177.00" from="C0C1" to="dIH"/>
    <trip id="1h99" depart="4182.00" from="H11H10" to="E10E11"/>
    <trip id="1h100" depart="4189.00" from="B11B10" to="B6A6"/>
    <trip id="1h101" depart="4210.00" from="L10K10" to="K7L7"/>
    <trip id="1h102" depart="4232.00" from="A7B7" to="D1D0"/>
    <trip id="1h103" depart="4242.00" from="dLK" to="K10K11"/>
    <trip id="1h104" depart="4252.00" from="A5B5" to="B6A6"/>
    <trip id="1h105" depart="4254.00" from="A5B5" to="B10A10"/>
    <trip id="1h106" depart="4256.00" from="J11J10" to="K1L1"/>
    <trip id="1h107" depart="4262.00" from="L8K8" to="E10E11"/>
    <trip id="1h108" depart="4269.00" from="L4K4" to="dBA"/>
    <trip id="1h109" depart="4272.00" from="C0C1" to="H1H0"/>
    <trip id="1h110" depart="4295.00" from="G0G1" to="K7L7"/>
    <trip id="1h111" depart="4295.00" from="dAB" to="G10G11"/>
    <trip id="1h112" depart="4298.00" from="K0K1" to="J3K3"/>
    <trip id="1h113" depart="4298.00" from="G0G1" to="K9L9"/>
    <trip id="1h114" depart="4301.00" from="G0G1" to="dBA"/>
    <trip id="1h115" depart="4307.00" from="A9B9" to="B1B0"/>
    <trip id="1h116" depart="4312.00" from="E0E1" to="K5L5"/>
    <trip id="1h117" depart="4315.00" from="I0I1" to="K10K11"/>
    <trip id="1h118" depart="4318.00" from="B11B10" to="B8A8"/>
    <trip id="1h119" depart="4331.00" from="C3C4" to="K7K8"/>
    <trip id="1h120" depart="4335.00" from="L4K4" to="K7L7"/>
    <trip id="1h121" depart="4341.00" from="A7B7" to="B1B0"/>
    <trip id="1h122" depart="4346.00" from="A5B5" to="dBA"/>
    <trip id="1h123" depart="4348.00" from="A5B5" to="C10C11"/>
    <trip id="1h124" depart="4350.00" from="L2K2" to="K3L3"/>
    <trip id="1h125" depart="4360.00" from="L8K8" to="B1B0"/>
    <trip id="1h126" depart="4365.00" from="G7G8" to="K1L1"/>
    <trip id="1h127" depart="4369.00" from="L2K2" to="J1J0"/>
    <trip id="1h128" depart="4372.00" from="A3B3" to="K1L1"/>
    <trip id="1h129" depart="4375.00" from="I0I1" to="dKL"/>
    <trip id="1h130" depart="4376.00" from="J10J9" to="dKL"/>
    <trip id="1h131" depart="4379.00" from="E0E1" to="B1B0"/>
    <trip id="1h132" depart="4387.00" from="A3B3" to="H1H0"/>
    <trip id="1h133" depart="4395.00" from="L10K10" to="I10I11"/>
    <trip id="1h134" depart="4404.00" from="C4C5" to="dBA"/>
    <trip id="1h135" depart="4410.00" from="E0E1" to="dKL"/>
    <trip id="1h136" depart="4412.00" from="H11H10" to="B4A4"/>
    <trip id="1h137" depart="4422.00" from="L8K8" to="B6A6"/>
    <trip id="1h138" depart="4433.00" from="H8H7" to="K7L7"/>
    <trip id="1h139" depart="4442.00" from="D11D10" to="J1J0"/>
    <trip id="1h140" depart="4449.00" from="dLK" to="dK4"/>
    <trip id="1h141" depart="4455.00" from="dAB" to="B4A4"/>
    <trip id="1h142" depart="4459.00" from="dLK" to="B10A10"/>
    <trip id="1h143" depart="4464.00" from="L6K6" to="K10K11"/>
    <trip id="1h144" depart="4469.00" from="E0E1" to="C10C11"/>
    <trip id="1h145" depart="4478.00" from="L6K6" to="C10C11"/>
    <trip id="1h146" depart="4485.00" from="L4K4" to="I3J3"/>
    <trip id="1h147" depart="4487.00" from="F6E6" to="K7L7"/>
    <trip id="1h148" depart="4488.00" from="L4K4" to="B10A10"/>
    <trip id="1h149" depart="4493.00" from="E0E1" to="B8A8"/>
    <trip id="1h150" depart="4494.00" from="A7B7" to="E10E11"/>
    <trip id="1h151" depart="4503.00" from="A9B9" to="I10I11"/>
    <trip id="1h152" depart="4510.00" from="D11D10" to="G10G11"/>
    <trip id="1h153" depart="4516.00" from="A5B5" to="D1D0"/>
    <trip id="1h154" depart="4521.00" from="B11B10" to="K5L5"/>
    <trip id="1h155" depart="4530.00" from="G0G1" to="D1D0"/>
    <trip id="1h156" depart="4533.00" from="D7E7" to="K1L1"/>
    <trip id="1h157" depart="4538.00" from="A1B1" to="C10C11"/>
    <trip id="1h158" depart="4539.00" from="B3C3" to="D4D3"/>
    <trip id="1h159" depart="4545.00" from="L4K4" to="K9L9"/>
    <trip id="1h160" depart="4548.00" from="G0G1" to="K10K11"/>
    <trip id="1h161" depart="4548.00" from="J11J10" to="B2A2"/>
    <trip id="1h162" depart="4552.00" from="C7D7" to="J2I2"/>
    <trip id="1h163" depart="4572.00" from="L10K10" to="K5L5"/>
    <trip id="1h164" depart="4582.00" from="L4K4" to="dDE"/>
    <trip id="1h165" depart="4597.00" from="A5B5" to="C10C11"/>
    <trip id="1h166" depart="4605.00" from="L6K6" to="B10A10"/>
    <trip id="1h167" depart="4609.00" from="A7B7" to="E10E11"/>
    <trip id="1h168" depart="4611.00" from="A3B3" to="I10I11"/>
    <trip id="1h169" depart="4622.00" from="L6K6" to="J1J0"/>
    <trip id="1h170" depart="4624.00" from="G2G3" to="E10E11"/>
    <trip id="1h171" depart="4627.00" from="K0K1" to="K3L3"/>
    <trip id="1h172" depart="4632.00" from="F11F10" to="B4A4"/>
    <trip id="1h173" depart="4642.00" from="F11F10" to="H1H0"/>
    <trip id="1h174" depart="4642.00" from="D11D10" to="B2A2"/>
    <trip id="1h175" depart="4646.00" from="L6K6" to="K7L7"/>
    <trip id="1h176" depart="4648.00" from="C0C1" to="D5D4"/>
    <trip id="1h177" depart="4656.00" from="F11F10" to="D1D0"/>
    <trip id="1h178" depart="4660.00" from="A7B7" to="K9L9"/>
    <trip id="1h179" depart="4667.00" from="D11D10" to="I10I11"/>
    <trip id="1h180" depart="4671.00" from="D11D10" to="J1J0"/>
    <trip id="1h181" depart="4677.00" from="F11F10" to="B4A4"/>
    <trip id="1h182" depart="4678.00" from="D11D10" to="B1B0"/>
    <trip id="1h183" depart="4679.00" from="D11D10" to="D1D0"/>
    <trip id="1h184" depart="4691.00" from="A1B1" to="K10K11"/>
    <trip id="1h185" depart="4700.00" from="dAB" to="D1D0"/>
    <trip id="1h186" depart="4707.00" from="L2K2" to="I9I10"/>
    <trip id="1h187" depart="4722.00" from="F11F10" to="B10A10"/>
    <trip id="1h188" depart="4725.00" from="L6K6" to="B10A10"/>
    <trip id="1h189" depart="4732.00" from="L4K4" to="E5E6"/>
    <trip id="1h190" depart="4737.00" from="L8K8" to="B2A2"/>
    <trip id="1h191" depart="4748.00" from="L10K10" to="D9D8"/>
    <trip id="1h192" depart="4751.00" from="B3B2" to="I10I11"/>
    <trip id="1h193" depart="4754.00" from="A5B5" to="D1D0"/>
    <trip id="1h194" depart="4771.00" from="B11B10" to="B10A10"/>
    <trip id="1h195" depart="4779.00" from="J11J10" to="K1L1"/>
    <trip id="1h196" depart="4783.00" from="E0E1" to="B10A10"/>
    <trip id="1h197" depart="4795.00" from="dAB" to="B6A6"/>
    <trip id="1h198" depart="4795.00" from="B11B10" to="K5L5"/>
    <trip id="1h199" depart="4816.00" from="L6K6" to="B1B0"/>
    <trip id="1h200" depart="4823.00" from="L8K8" to="F1F0"/>
    <trip id="1h201" depart="4829.00" from="A1B1" to="K5L5"/>
    <trip id="1h202" depart="4830.00" from="L4K4" to="B8A8"/>
    <trip id="1h203" depart="4832.00" from="A9B9" to="B6A6"/>
    <trip id="1h204" depart="4835.00" from="L2K2" to="B2A2"/>
    <trip id="1h205" depart="4839.00" from="L4K4" to="K10K11"/>
    <trip id="1h206" depart="4842.00" from="D11D10" to="B4A4"/>
    <trip id="1h207" depart="4850.00" from="C0C1" to="B4A4"/>
    <trip id="1h208" depart="4859.00" from="L10K10" to="I10I11"/>
    <trip id="1h209" depart="4865.00" from="A1B1" to="B1B0"/>
    <trip id="1h210" depart="4865.00" from="C0C1" to="B10A10"/>
    <trip id="1h211" depart="4869.00" from="L8K8" to="K10K11"/>
    <trip id="1h212" depart="4879.00" from="L4K4" to="H1H0"/>
    <trip id="1h213" depart="4885.00" from="A7B7" to="K7L7"/>
    <trip id="1h214" depart="4887.00" from="L2K2" to="K5L5"/>
    <trip id="1h215" depart="4893.00" from="A3B3" to="K5L5"/>
    <trip id="1h216" depart="4893.00" from="L8K8" to="B4A4"/>
    <trip id="1h217" depart="4906.00" from="A9B9" to="dBA"/>
    <trip id="1h218" depart="4909.00" from="D11D10" to="J1J0"/>
    <trip id="1h219" depart="4923.00" from="L6K6" to="K3L3"/>
    <trip id="1h220" depart="4925.00" from="G0G1" to="K5L5"/>
    <trip id="1h221" depart="4928.00" from="F11F10" to="J1J0"/>
    <trip id="1h222" depart="4928.00" from="B11B10" to="F1F0"/>
    <trip id="1h223" depart="4936.00" from="A3B3" to="K7L7"/>
    <trip id="1h224" depart="4944.00" from="H11H10" to="G10G11"/>
    <trip id="1h225" depart="4945.00" from="A9B9" to="B4A4"/>
    <trip id="1h226" depart="4954.00" from="L4K4" to="dGH"/>
    <trip id="1h227" depart="4956.00" from="G0G1" to="K7L7"/>
    <trip id="1h228" depart="4965.00" from="B11B10" to="K4J4"/>
    <trip id="1h229" depart="4971.00" from="E0E1" to="dKL"/>
    <trip id="1h230" depart="4980.00" from="B11B10" to="K1L1"/>
    <trip id="1h231" depart="4981.00" from="H11H10" to="C10C11"/>
    <trip id="1h232" depart="4985.00" from="A5B5" to="B6A6"/>
    <trip id="1h233" depart="4993.00" from="dLK" to="D1D0"/>
    <trip id="1h234" depart="4993.00" from="A9B9" to="B2A2"/>
    <trip id="1h235" depart="5000.00" from="K5K6" to="dBA"/>
    <trip id="1h236" depart="5012.00" from="A1B1" to="K10K11"/>
    <trip id="1h237" depart="5016.00" from="C0C1" to="B8A8"/>
    <trip id="1h238" depart="5019.00" from="J11J10" to="J1J0"/>
    <trip id="1h239" depart="5020.00" from="J11J10" to="C10C11"/>
    <trip id="1h240" depart="5032.00" from="A9B9" to="K5L5"/>
    <trip id="1h241" depart="5034.00" from="J11J10" to="B8A8"/>
    <trip id="1h242" depart="5039.00" from="A3B3" to="B6A6"/>
    <trip id="1h243" depart="5044.00" from="L4K4" to="H1H0"/>
    <trip id="1h244" depart="5052.00" from="L4K4" to="C10C11"/>
    <trip id="1h245" depart="5052.00" from="D11D10" to="F1F0"/>
    <trip id="1h246" depart="5057.00" from="K0K1" to="H1H0"/>
    <trip id="1h247" depart="5060.00" from="G10F10" to="F1F0"/>
    <trip id="1h248" depart="5073.00" from="H11H10" to="B2A2"/>
    <trip id="1h249" depart="5074.00" from="D11D10" to="dKL"/>
    <trip id="1h250" depart="5076.00" from="A7B7" to="K9L9"/>
    <trip id="1h251" depart="5083.00" from="J11J10" to="K10K11"/>
    <trip id="1h252" depart="5090.00" from="D11D10" to="G10G11"/>
    <trip id="1h253" depart="5102.00" from="D11D10" to="B10A10"/>
    <trip id="1h254" depart="5104.00" from="E0E1" to="H1H0"/>
    <trip id="1h255" depart="5106.00" from="C9D9" to="B2A2"/>
    <trip id="1h256" depart="5106.00" from="A5B5" to="B8A8"/>
    <trip id="1h257" depart="5123.00" from="F11F10" to="G10G11"/>
    <trip id="1h258" depart="5129.00" from="K0K1" to="dKL"/>
    <trip id="1h259" depart="5131.00" from="A5B5" to="dKL"/>
    <trip id="1h260" depart="5143.00" from="A9B9" to="K10K11"/>
    <trip id="1h261" depart="5147.00" from="B11B10" to="dKL"/>
    <trip id="1h262" depart="5151.00" from="L10K10" to="dBA"/>
    <trip id="1h263" depart="5157.00" from="A9B9" to="K5L5"/>
    <trip id="1h264" depart="5164.00" from="I0I1" to="B2A2"/>
    <trip id="1h265" depart="5181.00" from="L4K4" to="D1D0"/>
    <trip id="1h266" depart="5187.00" from="G0G1" to="H1H0"/>
    <trip id="1h267" depart="5188.00" from="L4K4" to="F1F0"/>
    <trip id="1h268" depart="5197.00" from="L6K6" to="K7L7"/>
    <trip id="1h269" depart="5200.00" from="K0K1" to="K3L3"/>
    <trip id="1h270" depart="5206.00" from="B11B10" to="K9L9"/>
    <trip id="1h271" depart="5206.00" from="K0K1" to="E10E11"/>
    <trip id="1h272" depart="5207.00" from="A5B5" to="C10C11"/>
    <trip id="1h273" depart="5210.00" from="L6K6" to="F10E10"/>
    <trip id="1h274" depart="5211.00" from="J4J3" to="dBA"/>
    <trip id="1h275" depart="5213.00" from="L2K2" to="K3L3"/>
    <trip id="1h276" depart="5217.00" from="dLK" to="I10I11"/>
    <trip id="1h277" depart="5217.00" from="dAB" to="K9L9"/>
    <trip id="1h278" depart="5223.00" from="L10K10" to="B1B0"/>
    <trip id="1h279" depart="5224.00" from="A5B5" to="H1H0"/>
    <trip id="1h280" depart="5229.00" from="dJI" to="C10C11"/>
    <trip id="1h281" depart="5241.00" from="A3B3" to="B4A4"/>
    <trip id="1h282" depart="5245.00" from="E0E1" to="dJK"/>
    <trip id="1h283" depart="5245.00" from="K0K1" to="I10I11"/>
    <trip id="1h284" depart="5245.00" from="D2C2" to="dBA"/>
    <trip id="1h285" depart="5251.00" from="G0G1" to="E10E11"/>
    <trip id="1h286" depart="5254.00" from="L2K2" to="H1H0"/>
    <trip id="1h287" depart="5258.00" from="F11F10" to="B2A2"/>
    <trip id="1h288" depart="5266.00" from="A7B7" to="J1J0"/>
    <trip id="1h289" depart="5267.00" from="A1B1" to="B6A6"/>
    <trip id="1h290" depart="5276.00" from="J4J3" to="E10E11"/>
    <trip id="1h291" depart="5290.00" from="H11H10" to="K10K11"/>
    <trip id="1h292" depart="5301.00" from="E0E1" to="G10G11"/>
    <trip id="1h293" depart="5311.00" from="K0K1" to="B8A8"/>
    <trip id="1h294" depart="5313.00" from="dAB" to="B2A2"/>
    <trip id="1h295" depart="5314.00" from="A7B7" to="B8A8"/>
    <trip id="1h296" depart="5315.00" from="J11J10" to="K10J10"/>
    <trip id="1h297" depart="5321.00" from="F11F10" to="I10I11"/>
    <trip id="1h298" depart="5331.00" from="L8K8" to="I10I11"/>
    <trip id="1h299" depart="5338.00" from="B11B10" to="F6F5"/>
    <trip id="1h300" depart="5345.00" from="L6K6" to="B4A4"/>
    <trip id="1h301" depart="5348.00" from="G0G1" to="B4A4"/>
    <trip id="1h302" depart="5358.00" from="H11H10" to="B6A6"/>
    <trip id="1h303" depart="5359.00" from="G8G9" to="H1H0"/>
    <trip id="1h304" depart="5369.00" from="L2K2" to="B2A2"/>
    <trip id="1h305" depart="5369.00" from="L4K4" to="B6A6"/>
    <trip id="1h306" depart="5375.00" from="A1B1" to="dBA"/>
    <trip id="1h307" depart="5376.00" from="J11J10" to="D1D0"/>
    <trip id="1h308" depart="5384.00" from="L8K8" to="H1H0"/>
    <trip id="1h309" depart="5388.00" from="F11F10" to="C1C2"/>
    <trip id="1h310" depart="5394.00" from="L8K8" to="I10I11"/>
    <trip id="1h311" depart="5397.00" from="dLK" to="E10E11"/>
    <trip id="1h312" depart="5405.00" from="L6K6" to="dKL"/>
    <trip id="1h313" depart="5414.00" from="L6K6" to="F1F0"/>
    <trip id="1h314" depart="5424.00" from="D11D10" to="I10I11"/>
    <trip id="1h315" depart="5430.00" from="dLK" to="H1H0"/>
    <trip id="1h316" depart="5437.00" from="dAB" to="C10C11"/>
    <trip id="1h317" depart="5440.00" from="A7B7" to="F1F0"/>
    <trip id="1h318" depart="5442.00" from="A9B9" to="H1H0"/>
    <trip id="1h319" depart="5449.00" from="L2K2" to="B1B0"/>
    <trip id="1h320" depart="5456.00" from="G0G1" to="J1J0"/>
    <trip id="1h321" depart="5459.00" from="C0C1" to="B8A8"/>
    <trip id="1h322" depart="5461.00" from="D11D10" to="B8A8"/>
    <trip id="1h323" depart="5470.00" from="A3B3" to="B4A4"/>
    <trip id="1h324" depart="5471.00" from="L8K8" to="B10A10"/>
    <trip id="1h325" depart="5471.00" from="H11H10" to="B8A8"/>
    <trip id="1h326" depart="5472.00" from="H11H10" to="I10I11"/>
    <trip id="1h327" depart="5478.00" from="E0E1" to="D1D0"/>
    <trip id="1h328" depart="5483.00" from="C0C1" to="B4A4"/>
    <trip id="1h329" depart="5484.00" from="K0K1" to="K9L9"/>
    <trip id="1h330" depart="5489.00" from="G5H5" to="K3L3"/>
    <trip id="1h331" depart="5497.00" from="K0K1" to="B8A8"/>
    <trip id="1h332" depart="5499.00" from="L6K6" to="K5L5"/>
    <trip id="1h333" depart="5501.00" from="dAB" to="G2F2"/>
    <trip id="1h334" depart="5505.00" from="A5B5" to="B6A6"/>
    <trip id="1h335" depart="5506.00" from="A7B7" to="G10G11"/>
    <trip id="1h336" depart="5509.00" from="L4K4" to="H3H2"/>
    <trip id="1h337" depart="5510.00" from="J9K9" to="K10K11"/>
    <trip id="1h338" depart="5513.00" from="dAB" to="B8A8"/>
    <trip id="1h339" depart="5515.00" from="dAB" to="K3L3"/>
    <trip id="1h340" depart="5524.00" from="A9B9" to="F1F0"/>
    <trip id="1h341" depart="5526.00" from="K0K1" to="E10E11"/>
    <trip id="1h342" depart="5530.00" from="A9B9" to="K10K11"/>
    <trip id="1h343" depart="5540.00" from="B11B10" to="I10I11"/>
    <trip id="1h344" depart="5544.00" from="L2K2" to="dKL"/>
    <trip id="1h345" depart="5545.00" from="L10K10" to="B2A2"/>
    <trip id="1h346" depart="5547.00" from="A9B9" to="E10E11"/>
    <trip id="1h347" depart="5550.00" from="H11H10" to="D1D0"/>
    <trip id="1h348" depart="5564.00" from="H11H10" to="E2E3"/>
    <trip id="1h349" depart="5569.00" from="B11B10" to="B1B0"/>
    <trip id="1h350" depart="5570.00" from="A3B3" to="dKL"/>
    <trip id="1h351" depart="5572.00" from="I0I1" to="B8A8"/>
    <trip id="1h352" depart="5573.00" from="dAB" to="J1J0"/>
    <trip id="1h353" depart="5580.00" from="D11D10" to="G7G8"/>
    <trip id="1h354" depart="5581.00" from="L4K4" to="I10I11"/>
    <trip id="1h355" depart="5586.00" from="H11H10" to="D1D0"/>
    <trip id="1h356" depart="5594.00" from="A9B9" to="K5L5"/>
    <trip id="1h357" depart="5599.00" from="C0C1" to="J1J0"/>
    <trip id="1h358" depart="5601.00" from="J11J10" to="dGF"/>
    <trip id="1h359" depart="5602.00" from="dAB" to="K3L3"/>
    <trip id="1h360" depart="5607.00" from="A1B1" to="B4A4"/>
    <trip id="1h361" depart="5607.00" from="J11J10" to="G10G11"/>
    <trip id="1h362" depart="5609.00" from="A9B9" to="K2J2"/>
    <trip id="1h363" depart="5610.00" from="A5B5" to="dBA"/>
    <trip id="1h364" depart="5611.00" from="dAB" to="C10C11"/>
    <trip id="1h365" depart="5617.00" from="F11F10" to="B1B0"/>
    <trip id="1h366" depart="5629.00" from="B11B10" to="dBA"/>
    <trip id="1h367" depart="5630.00" from="G1H1" to="G1G2"/>
    <trip id="1h368" depart="5633.00" from="C0C1" to="F1F0"/>
    <trip id="1h369" depart="5636.00" from="D11D10" to="K3L3"/>
    <trip id="1h370" depart="5637.00" from="B11B10" to="K7L7"/>
    <trip id="1h371" depart="5638.00" from="D11D10" to="K9L9"/>
    <trip id="1h372" depart="5638.00" from="L2K2" to="J1J0"/>
    <trip id="1h373" depart="5646.00" from="G0G1" to="C10C11"/>
    <trip id="1h374" depart="5651.00" from="A3B3" to="K1L1"/>
    <trip id="1h375" depart="5652.00" from="H11H10" to="B2A2"/>
    <trip id="1h376" depart="5656.00" from="I0I1" to="K1L1"/>
    <trip id="1h377" depart="5658.00" from="dLK" to="F1F0"/>
    <trip id="1h378" depart="5659.00" from="A9B9" to="K5L5"/>
    <trip id="1h379" depart="5660.00" from="F11F10" to="K10K11"/>
    <trip id="1h380" depart="5665.00" from="K0K1" to="B1B0"/>
    <trip id="1h381" depart="5665.00" from="J11J10" to="I10I11"/>
    <trip id="1h382" depart="5671.00" from="K0K1" to="D1D0"/>
    <trip id="1h383" depart="5672.00" from="L6K6" to="K5L5"/>
    <trip id="1h384" depart="5674.00" from="I0I1" to="B1B0"/>
    <trip id="1h385" depart="5683.00" from="L10K10" to="B6A6"/>
    <trip id="1h386" depart="5689.00" from="J11J10" to="dBA"/>
    <trip id="1h387" depart="5692.00" from="A3B3" to="H1H0"/>
    <trip id="1h388" depart="5694.00" from="L2K2" to="K7L7"/>
    <trip id="1h389" depart="5697.00" from="L2K2" to="J1J0"/>
    <trip id="1h390" depart="5698.00" from="D11D10" to="B1B0"/>
    <trip id="1h391" depart="5700.00" from="D11D10" to="K7L7"/>
    <trip id="1h392" depart="5701.00" from="A9B9" to="D1D0"/>
    <trip id="1h393" depart="5703.00" from="H11H10" to="K1L1"/>
    <trip id="1h394" depart="5738.00" from="dLK" to="K3L3"/>
    <trip id="1h395" depart="5747.00" from="G0G1" to="B8A8"/>
    <trip id="1h396" depart="5749.00" from="A1B1" to="D1D0"/>
    <trip id="1h397" depart="5751.00" from="L4K4" to="B1B0"/>
    <trip id="1h398" depart="5752.00" from="L6K6" to="K6K7"/>
    <trip id="1h399" depart="5753.00" from="A1B1" to="B6A6"/>
    <trip id="1h400" depart="5754.00" from="D11D10" to="K7L7"/>
    <trip id="1h401" depart="5760.00" from="C0C1" to="H1H0"/>
    <trip id="1h402" depart="5771.00" from="A5B5" to="H1H0"/>
    <trip id="1h403" depart="5775.00" from="E0E1" to="I10I11"/>
    <trip id="1h404" depart="5780.00" from="C0C1" to="K10K11"/>
    <trip id="1h405" depart="5786.00" from="A7B7" to="K9L9"/>
    <trip id="1h406" depart="5786.00" from="dLK" to="H1H0"/>
    <trip id="1h407" depart="5796.00" from="L4K4" to="H1H0"/>
    <trip id="1h408" depart="5797.00" from="J11J10" to="K5L5"/>
    <trip id="1h409" depart="5802.00" from="dAB" to="C10C11"/>
    <trip id="1h410" depart="5808.00" from="L4K4" to="H9I9"/>
    <trip id="1h411" depart="5810.00" from="A3B3" to="B1B0"/>
    <trip id="1h412" depart="5813.00" from="C0C1" to="B6A6"/>
    <trip id="1h413" depart="5813.00" from="A1B1" to="B1B0"/>
    <trip id="1h414" depart="5819.00" from="B11B10" to="B3B2"/>
    <trip id="1h415" depart="5820.00" from="A7B7" to="F1F0"/>
    <trip id="1h416" depart="5821.00" from="J3J2" to="B6A6"/>
    <trip id="1h417" depart="5838.00" from="F11F10" to="B4A4"/>
    <trip id="1h418" depart="5842.00" from="dAB" to="dKL"/>
    <trip id="1h419" depart="5845.00" from="A9B9" to="J1J0"/>
    <trip id="1h420" depart="5845.00" from="A3B3" to="B4A4"/>
    <trip id="1h421" depart="5850.00" from="A5B5" to="D1D0"/>
    <trip id="1h422" depart="5854.00" from="dAB" to="H1H0"/>
    <trip id="1h423" depart="5861.00" from="L4K4" to="D1D0"/>
    <trip id="1h424" depart="5870.00" from="J11J10" to="E10E11"/>
    <trip id="1h425" depart="5872.00" from="A1B1" to="K10K11"/>
    <trip id="1h426" depart="5878.00" from="L4K4" to="K10K11"/>
    <trip id="1h427" depart="5881.00" from="L8K8" to="B1B0"/>
    <trip id="1h428" depart="5882.00" from="dAB" to="K7L7"/>
    <trip id="1h429" depart="5886.00" from="D1E1" to="K1L1"/>
    <trip id="1h430" depart="5891.00" from="L10K10" to="B6A6"/>
    <trip id="1h431" depart="5892.00" from="C0C1" to="I10I11"/>
    <trip id="1h432" depart="5898.00" from="A7B7" to="B6A6"/>
    <trip id="1h433" depart="5901.00" from="dEF" to="J1J0"/>
    <trip id="1h434" depart="5907.00" from="H11H10" to="J1J0"/>
    <trip id="1h435" depart="5910.00" from="G0G1" to="C10C11"/>
    <trip id="1h436" depart="5912.00" from="I0I1" to="B10A10"/>
    <trip id="1h437" depart="5912.00" from="dLK" to="B10A10"/>
    <trip id="1h438" depart="5921.00" from="J11J10" to="B1B0"/>
    <trip id="1h439" depart="5932.00" from="J11J10" to="D1D0"/>
    <trip id="1h440" depart="5933.00" from="dLK" to="B10A10"/>
    <trip id="1h441" depart="5940.00" from="L2K2" to="I10I11"/>
    <trip id="1h442" depart="5969.00" from="L2K2" to="G10G11"/>
    <trip id="1h443" depart="5973.00" from="dAB" to="D10D9"/>
    <trip id="1h444" depart="5976.00" from="I8I9" to="F1F0"/>
    <trip id="1h445" depart="5983.00" from="F11F10" to="B6A6"/>
    <trip id="1h446" depart="5989.00" from="L2K2" to="K5L5"/>
    <trip id="1h447" depart="5990.00" from="L10K10" to="G10G11"/>
    <trip id="1h448" depart="5994.00" from="dLK" to="dBA"/>
    <trip id="1h449" depart="6000.00" from="C0C1" to="dBA"/>
    <trip id="1h450" depart="6012.00" from="dKJ" to="C10C11"/>
    <trip id="1h451" depart="6016.00" from="E0E1" to="B4A4"/>
    <trip id="1h452" depart="6017.00" from="J11J10" to="B1B0"/>
    <trip id="1h453" depart="6017.00" from="A9B9" to="K1L1"/>
    <trip id="1h454" depart="6020.00" from="L8K8" to="K9L9"/>
    <trip id="1h455" depart="6023.00" from="E0E1" to="E10E11"/>
    <trip id="1h456" depart="6031.00" from="F11F10" to="B2A2"/>
    <trip id="1h457" depart="6038.00" from="I0I1" to="B4A4"/>
    <trip id="1h458" depart="6041.00" from="E0E1" to="C10C11"/>
    <trip id="1h459" depart="6047.00" from="D11D10" to="K3L3"/>
    <trip id="1h460" depart="6063.00" from="A9B9" to="dBA"/>
    <trip id="1h461" depart="6064.00" from="B11B10" to="B4A4"/>
    <trip id="1h462" depart="6080.00" from="L2K2" to="K3L3"/>
    <trip id="1h463" depart="6109.00" from="C0C1" to="B2A2"/>
    <trip id="1h464" depart="6110.00" from="A9B9" to="F1F0"/>
    <trip id="1h465" depart="6111.00" from="L6K6" to="dBA"/>
    <trip id="1h466" depart="6115.00" from="B11B10" to="K5L5"/>
    <trip id="1h467" depart="6116.00" from="A5B5" to="E10E11"/>
    <trip id="1h468" depart="6135.00" from="A9B9" to="D4D3"/>
    <trip id="1h469" depart="6142.00" from="L10K10" to="G10G11"/>