<?xml version="1.0" encoding="UTF-8"?>
<!-- generated on 2020-12-09 03:21:27.817051 by randomTrips.py v1_7_0+0000-714814baed
  options: -n .\data/grid01-bcn_100.net.xml <doubleminus>prefix=8h <doubleminus>fringe-factor 100 -b 28800 -e 32400 -p0.17577266735022704 <doubleminus>binomial 10 -odata/random/random_h_8-bcn_100.trips.rou.xml <doubleminus>edge-permission=passenger
-->
<routes xmlns:xsi="http://www.w3.org/2001/XMLSchema-instance" xsi:noNamespaceSchemaLocation="http://sumo.dlr.de/xsd/routes_file.xsd">
    <trip id="8h0" depart="28800.00" from="C0C1" to="B8A8"/>
    <trip id="8h1" depart="28800.00" from="F11F10" to="B10A10"/>
    <trip id="8h2" depart="28800.00" from="H11H10" to="B10A10"/>
    <trip id="8h3" depart="28800.00" from="J7K7" to="H1H0"/>
    <trip id="8h4" depart="28800.00" from="I0I1" to="K5L5"/>
    <trip id="8h5" depart="28800.00" from="L4K4" to="K1L1"/>
    <trip id="8h6" depart="28801.00" from="A7B7" to="dJK"/>
    <trip id="8h7" depart="28801.00" from="A5B5" to="B2A2"/>
    <trip id="8h8" depart="28801.00" from="dLK" to="E10E11"/>
    <trip id="8h9" depart="28801.00" from="L6K6" to="J1J0"/>
    <trip id="8h10" depart="28802.00" from="B11B10" to="C10C11"/>
    <trip id="8h11" depart="28802.00" from="B11B10" to="B2A2"/>
    <trip id="8h12" depart="28802.00" from="J11J10" to="E10E11"/>
    <trip id="8h13" depart="28802.00" from="B11B10" to="C10C11"/>
    <trip id="8h14" depart="28802.00" from="L10K10" to="B4A4"/>
    <trip id="8h15" depart="28802.00" from="dLK" to="J1J0"/>
    <trip id="8h16" depart="28803.00" from="K0K1" to="K7L7"/>
    <trip id="8h17" depart="28803.00" from="A1B1" to="D1D0"/>
    <trip id="8h18" depart="28803.00" from="B11B10" to="dBA"/>
    <trip id="8h19" depart="28803.00" from="K0K1" to="E10E11"/>
    <trip id="8h20" depart="28803.00" from="C0C1" to="B8A8"/>
    <trip id="8h21" depart="28803.00" from="C0C1" to="I10I11"/>
    <trip id="8h22" depart="28804.00" from="B11B10" to="dKL"/>
    <trip id="8h23" depart="28804.00" from="A5B5" to="B1B0"/>
    <trip id="8h24" depart="28804.00" from="J11J10" to="K5L5"/>
    <trip id="8h25" depart="28804.00" from="A3B3" to="E10E11"/>
    <trip id="8h26" depart="28804.00" from="dLK" to="K7L7"/>
    <trip id="8h27" depart="28804.00" from="L10K10" to="K10K11"/>
    <trip id="8h28" depart="28804.00" from="C0C1" to="J1J0"/>
    <trip id="8h29" depart="28804.00" from="F11F10" to="G10F10"/>
    <trip id="8h30" depart="28805.00" from="G6G7" to="B6A6"/>
    <trip id="8h31" depart="28805.00" from="J11J10" to="J1J0"/>
    <trip id="8h32" depart="28805.00" from="L2K2" to="H1H0"/>
    <trip id="8h33" depart="28805.00" from="A1B1" to="D1D0"/>
    <trip id="8h34" depart="28805.00" from="dAB" to="K9L9"/>
    <trip id="8h35" depart="28806.00" from="A3B3" to="K9L9"/>
    <trip id="8h36" depart="28806.00" from="G0G1" to="B1B0"/>
    <trip id="8h37" depart="28806.00" from="G0G1" to="H6H5"/>
    <trip id="8h38" depart="28806.00" from="L8K8" to="F1F0"/>
    <trip id="8h39" depart="28806.00" from="H11H10" to="K1L1"/>
    <trip id="8h40" depart="28806.00" from="D11D10" to="dKL"/>
    <trip id="8h41" depart="28807.00" from="H11H10" to="B2A2"/>
    <trip id="8h42" depart="28807.00" from="D11D10" to="I10I11"/>
    <trip id="8h43" depart="28807.00" from="B11B10" to="B1B0"/>
    <trip id="8h44" depart="28807.00" from="L8K8" to="K7L7"/>
    <trip id="8h45" depart="28807.00" from="B11B10" to="K10K11"/>
    <trip id="8h46" depart="28807.00" from="A7B7" to="dBA"/>
    <trip id="8h47" depart="28807.00" from="L4K4" to="K5L5"/>
    <trip id="8h48" depart="28807.00" from="A5B5" to="F1F0"/>
    <trip id="8h49" depart="28808.00" from="G0G1" to="K1L1"/>
    <trip id="8h50" depart="28808.00" from="E8D8" to="D1D0"/>
    <trip id="8h51" depart="28808.00" from="A9B9" to="F4E4"/>
    <trip id="8h52" depart="28808.00" from="C0C1" to="B8A8"/>
    <trip id="8h53" depart="28808.00" from="L6K6" to="H7H6"/>
    <trip id="8h54" depart="28808.00" from="dLK" to="K7L7"/>
    <trip id="8h55" depart="28809.00" from="G0G1" to="B8A8"/>
    <trip id="8h56" depart="28809.00" from="A3B3" to="E10E11"/>
    <trip id="8h57" depart="28809.00" from="L4K4" to="G10G11"/>
    <trip id="8h58" depart="28809.00" from="dJK" to="dKL"/>
    <trip id="8h59" depart="28809.00" from="L10K10" to="B4A4"/>
    <trip id="8h60" depart="28809.00" from="dLK" to="I10I11"/>
    <trip id="8h61" depart="28810.00" from="L2K2" to="B1B0"/>
    <trip id="8h62" depart="28810.00" from="L6K6" to="B4A4"/>
    <trip id="8h63" depart="28810.00" from="A9B9" to="I1I2"/>
    <trip id="8h64" depart="28810.00" from="A5B5" to="K9L9"/>
    <trip id="8h65" depart="28810.00" from="I10H10" to="J1J0"/>
    <trip id="8h66" depart="28810.00" from="I0I1" to="H1H0"/>
    <trip id="8h67" depart="28811.00" from="L10K10" to="B8A8"/>
    <trip id="8h68" depart="28811.00" from="K0K1" to="C3D3"/>
    <trip id="8h69" depart="28811.00" from="L2K2" to="B1B0"/>
    <trip id="8h70" depart="28811.00" from="dLK" to="dKL"/>
    <trip id="8h71" depart="28811.00" from="B11B10" to="C10C11"/>
    <trip id="8h72" depart="28811.00" from="A7B7" to="K7L7"/>
    <trip id="8h73" depart="28812.00" from="L4K4" to="C3C4"/>
    <trip id="8h74" depart="28812.00" from="A5B5" to="B2A2"/>
    <trip id="8h75" depart="28812.00" from="C0C1" to="J1J0"/>
    <trip id="8h76" depart="28812.00" from="J11J10" to="C10C11"/>
    <trip id="8h77" depart="28813.00" from="L8K8" to="K7L7"/>
    <trip id="8h78" depart="28813.00" from="F11F10" to="C10C11"/>
    <trip id="8h79" depart="28813.00" from="L2K2" to="J1J0"/>
    <trip id="8h80" depart="28813.00" from="L2K2" to="H8H7"/>
    <trip id="8h81" depart="28813.00" from="A1B1" to="B1B0"/>
    <trip id="8h82" depart="28813.00" from="L6K6" to="I10I11"/>
    <trip id="8h83" depart="28813.00" from="A7B7" to="D1D0"/>
    <trip id="8h84" depart="28814.00" from="B11B10" to="B2A2"/>
    <trip id="8h85" depart="28814.00" from="J11J10" to="B4A4"/>
    <trip id="8h86" depart="28815.00" from="L10K10" to="D1D0"/>
    <trip id="8h87" depart="28815.00" from="L4K4" to="B2A2"/>
    <trip id="8h88" depart="28816.00" from="L4K4" to="G10G11"/>
    <trip id="8h89" depart="28816.00" from="L4K4" to="B8A8"/>
    <trip id="8h90" depart="28816.00" from="A9B9" to="D1D0"/>
    <trip id="8h91" depart="28816.00" from="J11J10" to="E4E5"/>
    <trip id="8h92" depart="28816.00" from="dAB" to="B2A2"/>
    <trip id="8h93" depart="28816.00" from="dLK" to="C10C11"/>
    <trip id="8h94" depart="28817.00" from="F11F10" to="K1L1"/>
    <trip id="8h95" depart="28817.00" from="J11J10" to="H1H0"/>
    <trip id="8h96" depart="28817.00" from="I0I1" to="B9B8"/>
    <trip id="8h97" depart="28817.00" from="dAB" to="H1H0"/>
    <trip id="8h98" depart="28817.00" from="A3B3" to="K10K11"/>
    <trip id="8h99" depart="28817.00" from="D11D10" to="K7L7"/>
    <trip id="8h100" depart="28818.00" from="D11D10" to="F1F0"/>
    <trip id="8h101" depart="28818.00" from="C0C1" to="B4A4"/>
    <trip id="8h102" depart="28818.00" from="dAB" to="K10K11"/>
    <trip id="8h103" depart="28818.00" from="H4G4" to="B10A10"/>
    <trip id="8h104" depart="28818.00" from="F11F10" to="I10I11"/>
    <trip id="8h105" depart="28818.00" from="F11F10" to="B8A8"/>
    <trip id="8h106" depart="28819.00" from="L8K8" to="K5L5"/>
    <trip id="8h107" depart="28819.00" from="A5B5" to="H1H0"/>
    <trip id="8h108" depart="28819.00" from="L4K4" to="K3L3"/>
    <trip id="8h109" depart="28819.00" from="A9B9" to="B10A10"/>
    <trip id="8h110" depart="28819.00" from="G0G1" to="K7L7"/>
    <trip id="8h111" depart="28819.00" from="F11F10" to="J1J0"/>
    <trip id="8h112" depart="28819.00" from="K5K6" to="G10G11"/>
    <trip id="8h113" depart="28819.00" from="K0K1" to="B10A10"/>
    <trip id="8h114" depart="28820.00" from="F11F10" to="B6A6"/>
    <trip id="8h115" depart="28820.00" from="A3B3" to="B8A8"/>
    <trip id="8h116" depart="28820.00" from="L4K4" to="K10K11"/>
    <trip id="8h117" depart="28821.00" from="L6K6" to="H4G4"/>
    <trip id="8h118" depart="28821.00" from="C0C1" to="B8A8"/>
    <trip id="8h119" depart="28821.00" from="J11J10" to="C10C11"/>
    <trip id="8h120" depart="28822.00" from="C0C1" to="C10C11"/>
    <trip id="8h121" depart="28822.00" from="H11H10" to="B4A4"/>
    <trip id="8h122" depart="28822.00" from="K1K2" to="K1L1"/>
    <trip id="8h123" depart="28822.00" from="F11F10" to="H1H0"/>
    <trip id="8h124" depart="28822.00" from="A9B9" to="F1F0"/>
    <trip id="8h125" depart="28823.00" from="A1B1" to="D6D5"/>
    <trip id="8h126" depart="28823.00" from="L2K2" to="H2G2"/>
    <trip id="8h127" depart="28823.00" from="B11B10" to="F1F0"/>
    <trip id="8h128" depart="28823.00" from="D11D10" to="K10K11"/>
    <trip id="8h129" depart="28823.00" from="A7B7" to="G10G11"/>
    <trip id="8h130" depart="28823.00" from="J11J10" to="B10A10"/>
    <trip id="8h131" depart="28824.00" from="I0I1" to="B10A10"/>
    <trip id="8h132" depart="28824.00" from="G0G1" to="B1B0"/>
    <trip id="8h133" depart="28824.00" from="B11B10" to="D1D0"/>
    <trip id="8h134" depart="28824.00" from="L2K2" to="K7L7"/>
    <trip id="8h135" depart="28824.00" from="A3B3" to="B10A10"/>
    <trip id="8h136" depart="28824.00" from="dLK" to="D4C4"/>
    <trip id="8h137" depart="28825.00" from="A1B1" to="B4A4"/>
    <trip id="8h138" depart="28825.00" from="K0K1" to="I10I11"/>
    <trip id="8h139" depart="28825.00" from="L10K10" to="K3L3"/>
    <trip id="8h140" depart="28825.00" from="J11J10" to="K3L3"/>
    <trip id="8h141" depart="28825.00" from="L4K4" to="dKL"/>
    <trip id="8h142" depart="28825.00" from="A1B1" to="D1D0"/>
    <trip id="8h143" depart="28826.00" from="L10K10" to="B1B0"/>
    <trip id="8h144" depart="28826.00" from="L2K2" to="K7L7"/>
    <trip id="8h145" depart="28826.00" from="dLK" to="K5L5"/>
    <trip id="8h146" depart="28826.00" from="F11F10" to="E10E11"/>
    <trip id="8h147" depart="28826.00" from="D11D10" to="K7L7"/>
    <trip id="8h148" depart="28827.00" from="dLK" to="J1J0"/>
    <trip id="8h149" depart="28827.00" from="L10K10" to="dKL"/>
    <trip id="8h150" depart="28827.00" from="L4K4" to="H1H0"/>
    <trip id="8h151" depart="28827.00" from="F11F10" to="K1L1"/>
    <trip id="8h152" depart="28827.00" from="L6K6" to="K7L7"/>
    <trip id="8h153" depart="28827.00" from="L8K8" to="B8A8"/>
    <trip id="8h154" depart="28827.00" from="J11J10" to="E10E11"/>
    <trip id="8h155" depart="28827.00" from="L6K6" to="B6A6"/>
    <trip id="8h156" depart="28828.00" from="L4K4" to="D1D0"/>
    <trip id="8h157" depart="28828.00" from="A1B1" to="dBA"/>
    <trip id="8h158" depart="28828.00" from="L10K10" to="G10G11"/>
    <trip id="8h159" depart="28828.00" from="L4K4" to="B2A2"/>
    <trip id="8h160" depart="28828.00" from="K0K1" to="D1D0"/>
    <trip id="8h161" depart="28829.00" from="H11H10" to="F1F0"/>
    <trip id="8h162" depart="28829.00" from="L10K10" to="C10C11"/>
    <trip id="8h163" depart="28829.00" from="A5B5" to="B6A6"/>
    <trip id="8h164" depart="28829.00" from="H11H10" to="K3L3"/>
    <trip id="8h165" depart="28829.00" from="B11B10" to="G10G11"/>
    <trip id="8h166" depart="28829.00" from="C0C1" to="B2A2"/>
    <trip id="8h167" depart="28830.00" from="B11B10" to="B6A6"/>
    <trip id="8h168" depart="28830.00" from="H11H10" to="C10C11"/>
    <trip id="8h169" depart="28830.00" from="K6K7" to="B3B2"/>
    <trip id="8h170" depart="28830.00" from="L8K8" to="I10I11"/>
    <trip id="8h171" depart="28830.00" from="F11F10" to="B6A6"/>
    <trip id="8h172" depart="28830.00" from="dAB" to="G10G11"/>
    <trip id="8h173" depart="28830.00" from="A3B3" to="J1J0"/>
    <trip id="8h174" depart="28831.00" from="A7B7" to="I10I11"/>
    <trip id="8h175" depart="28831.00" from="dLK" to="B2A2"/>
    <trip id="8h176" depart="28831.00" from="H11H10" to="F6E6"/>
    <trip id="8h177" depart="28831.00" from="L6K6" to="dKL"/>
    <trip id="8h178" depart="28831.00" from="J11J10" to="J1J0"/>
    <trip id="8h179" depart="28832.00" from="B11B10" to="K10K11"/>
    <trip id="8h180" depart="28832.00" from="A9B9" to="B1B0"/>
    <trip id="8h181" depart="28832.00" from="F6E6" to="I10I11"/>
    <trip id="8h182" depart="28832.00" from="B11B10" to="K1L1"/>
    <trip id="8h183" depart="28832.00" from="K0K1" to="dBA"/>
    <trip id="8h184" depart="28833.00" from="H11H10" to="J5J4"/>
    <trip id="8h185" depart="28833.00" from="A7B7" to="D1D0"/>
    <trip id="8h186" depart="28833.00" from="A5B5" to="K10K11"/>
    <trip id="8h187" depart="28833.00" from="G0G1" to="B1B0"/>
    <trip id="8h188" depart="28834.00" from="F11F10" to="D1D0"/>
    <trip id="8h189" depart="28834.00" from="A5B5" to="dKL"/>
    <trip id="8h190" depart="28834.00" from="A1B1" to="K3L3"/>
    <trip id="8h191" depart="28834.00" from="J9K9" to="dBA"/>
    <trip id="8h192" depart="28834.00" from="I0I1" to="J1J0"/>
    <trip id="8h193" depart="28835.00" from="A5B5" to="D2C2"/>
    <trip id="8h194" depart="28835.00" from="K0K1" to="K7L7"/>
    <trip id="8h195" depart="28835.00" from="K10J10" to="C10C11"/>
    <trip id="8h196" depart="28835.00" from="G0G1" to="D1D0"/>
    <trip id="8h197" depart="28835.00" from="dLK" to="F10E10"/>
    <trip id="8h198" depart="28835.00" from="dLK" to="K10K11"/>
    <trip id="8h199" depart="28835.00" from="F11F10" to="B6A6"/>
    <trip id="8h200" depart="28835.00" from="L2K2" to="J1J0"/>
    <trip id="8h201" depart="28836.00" from="H5I5" to="dBA"/>
    <trip id="8h202" depart="28836.00" from="K8J8" to="B2A2"/>
    <trip id="8h203" depart="28836.00" from="A7B7" to="H7I7"/>
    <trip id="8h204" depart="28836.00" from="A5B5" to="dKL"/>
    <trip id="8h205" depart="28836.00" from="A5B5" to="K7L7"/>
    <trip id="8h206" depart="28836.00" from="L10K10" to="H1H0"/>
    <trip id="8h207" depart="28837.00" from="L6K6" to="dKL"/>
    <trip id="8h208" depart="28837.00" from="H8G8" to="E10E11"/>
    <trip id="8h209" depart="28837.00" from="L8K8" to="K7L7"/>
    <trip id="8h210" depart="28837.00" from="L4K4" to="F1F0"/>
    <trip id="8h211" depart="28837.00" from="L4K4" to="C10C11"/>
    <trip id="8h212" depart="28837.00" from="I0I1" to="dKL"/>
    <trip id="8h213" depart="28837.00" from="A7B7" to="H1H0"/>
    <trip id="8h214" depart="28837.00" from="H9H8" to="H1H0"/>
    <trip id="8h215" depart="28838.00" from="D11D10" to="B6A6"/>
    <trip id="8h216" depart="28838.00" from="L2K2" to="B1B0"/>
    <trip id="8h217" depart="28838.00" from="K0K1" to="K5L5"/>
    <trip id="8h218" depart="28838.00" from="A1B1" to="G9G10"/>
    <trip id="8h219" depart="28839.00" from="H11H10" to="G10G11"/>
    <trip id="8h220" depart="28839.00" from="K0K1" to="B4A4"/>
    <trip id="8h221" depart="28839.00" from="dLK" to="D1D0"/>
    <trip id="8h222" depart="28840.00" from="D11D10" to="K1L1"/>
    <trip id="8h223" depart="28840.00" from="A3B3" to="J1J0"/>
    <trip id="8h224" depart="28840.00" from="A5B5" to="J1J0"/>
    <trip id="8h225" depart="28841.00" from="K1K2" to="K9L9"/>
    <trip id="8h226" depart="28841.00" from="L4K4" to="C10C11"/>
    <trip id="8h227" depart="28841.00" from="A7B7" to="H1H0"/>
    <trip id="8h228" depart="28841.00" from="L4K4" to="B6A6"/>
    <trip id="8h229" depart="28841.00" from="L8K8" to="J1J0"/>
    <trip id="8h230" depart="28841.00" from="dAB" to="B4A4"/>
    <trip id="8h231" depart="28841.00" from="B7C7" to="B9C9"/>
    <trip id="8h232" depart="28841.00" from="L4K4" to="K9L9"/>
    <trip id="8h233" depart="28842.00" from="F11F10" to="D1D0"/>
    <trip id="8h234" depart="28842.00" from="B11B10" to="K7L7"/>
    <trip id="8h235" depart="28842.00" from="E0E1" to="G10G11"/>
    <trip id="8h236" depart="28842.00" from="I0I1" to="I10I11"/>
    <trip id="8h237" depart="28842.00" from="dLK" to="K10K11"/>
    <trip id="8h238" depart="28842.00" from="I0I1" to="K10K11"/>
    <trip id="8h239" depart="28843.00" from="J11J10" to="G2F2"/>
    <trip id="8h240" depart="28843.00" from="L4K4" to="J1J0"/>
    <trip id="8h241" depart="28843.00" from="J11J10" to="J1J0"/>
    <trip id="8h242" depart="28844.00" from="F11F10" to="I10I11"/>
    <trip id="8h243" depart="28844.00" from="C0C1" to="K3L3"/>
    <trip id="8h244" depart="28844.00" from="A7B7" to="H1H0"/>
    <trip id="8h245" depart="28844.00" from="dAB" to="K7L7"/>
    <trip id="8h246" depart="28844.00" from="L6K6" to="G10G11"/>
    <trip id="8h247" depart="28845.00" from="A5B5" to="dKL"/>
    <trip id="8h248" depart="28845.00" from="dLK" to="K7L7"/>
    <trip id="8h249" depart="28845.00" from="L4K4" to="B10A10"/>
    <trip id="8h250" depart="28845.00" from="G0G1" to="K10K11"/>
    <trip id="8h251" depart="28846.00" from="B11B10" to="B10A10"/>
    <trip id="8h252" depart="28846.00" from="dAB" to="B8A8"/>
    <trip id="8h253" depart="28846.00" from="L4K4" to="dBA"/>
    <trip id="8h254" depart="28846.00" from="F11F10" to="B4A4"/>
    <trip id="8h255" depart="28846.00" from="G0G1" to="B2A2"/>
    <trip id="8h256" depart="28847.00" from="G0G1" to="K10K11"/>
    <trip id="8h257" depart="28847.00" from="L2K2" to="B4A4"/>
    <trip id="8h258" depart="28847.00" from="A5B5" to="G10G11"/>
    <trip id="8h259" depart="28847.00" from="dE7" to="B10A10"/>
    <trip id="8h260" depart="28847.00" from="F11F10" to="dDC"/>
    <trip id="8h261" depart="28847.00" from="K0K1" to="H1H0"/>
    <trip id="8h262" depart="28848.00" from="E2E3" to="B6A6"/>
    <trip id="8h263" depart="28848.00" from="L6K6" to="G10G11"/>
    <trip id="8h264" depart="28848.00" from="L4K4" to="B8A8"/>
    <trip id="8h265" depart="28848.00" from="I0I1" to="B1B0"/>
    <trip id="8h266" depart="28848.00" from="B11B10" to="K9L9"/>
    <trip id="8h267" depart="28848.00" from="A7B7" to="K9L9"/>
    <trip id="8h268" depart="28849.00" from="L6K6" to="B4A4"/>
    <trip id="8h269" depart="28849.00" from="B2B1" to="B6A6"/>
    <trip id="8h270" depart="28849.00" from="A1B1" to="K5L5"/>
    <trip id="8h271" depart="28849.00" from="D11D10" to="B6A6"/>
    <trip id="8h272" depart="28849.00" from="L2K2" to="H1H0"/>
    <trip id="8h273" depart="28849.00" from="L2K2" to="H1H0"/>
    <trip id="8h274" depart="28849.00" from="H10H9" to="dBA"/>
    <trip id="8h275" depart="28849.00" from="L4K4" to="K9L9"/>
    <trip id="8h276" depart="28850.00" from="G0G1" to="dKL"/>
    <trip id="8h277" depart="28850.00" from="G0G1" to="E7E8"/>
    <trip id="8h278" depart="28850.00" from="dAB" to="B1B0"/>
    <trip id="8h279" depart="28850.00" from="J11J10" to="B1B0"/>
    <trip id="8h280" depart="28850.00" from="J11J10" to="H4H3"/>
    <trip id="8h281" depart="28850.00" from="dLK" to="H1H0"/>
    <trip id="8h282" depart="28850.00" from="J11J10" to="B2A2"/>
    <trip id="8h283" depart="28851.00" from="F7G7" to="B8A8"/>
    <trip id="8h284" depart="28851.00" from="F9G9" to="F1F0"/>
    <trip id="8h285" depart="28851.00" from="F11F10" to="K10K11"/>
    <trip id="8h286" depart="28851.00" from="A7B7" to="dBA"/>
    <trip id="8h287" depart="28851.00" from="L6K6" to="B2A2"/>
    <trip id="8h288" depart="28851.00" from="L10K10" to="K5L5"/>
    <trip id="8h289" depart="28851.00" from="I0I1" to="I10I11"/>
    <trip id="8h290" depart="28852.00" from="A5B5" to="D8D7"/>
    <trip id="8h291" depart="28852.00" from="I0I1" to="B8A8"/>
    <trip id="8h292" depart="28852.00" from="A5B5" to="K7L7"/>
    <trip id="8h293" depart="28853.00" from="L2K2" to="I10I11"/>
    <trip id="8h294" depart="28853.00" from="dAB" to="K7L7"/>
    <trip id="8h295" depart="28853.00" from="A9B9" to="K1L1"/>
    <trip id="8h296" depart="28853.00" from="D11D10" to="B10A10"/>
    <trip id="8h297" depart="28854.00" from="E6D6" to="B4A4"/>
    <trip id="8h298" depart="28854.00" from="L2K2" to="B8A8"/>
    <trip id="8h299" depart="28854.00" from="D11D10" to="E10E11"/>
    <trip id="8h300" depart="28854.00" from="A5B5" to="B1B0"/>
    <trip id="8h301" depart="28854.00" from="J11J10" to="K10K11"/>
    <trip id="8h302" depart="28854.00" from="K0K1" to="G10G11"/>
    <trip id="8h303" depart="28855.00" from="C0C1" to="K3L3"/>
    <trip id="8h304" depart="28855.00" from="F11F10" to="C10C11"/>
    <trip id="8h305" depart="28855.00" from="K0K1" to="B1B0"/>
    <trip id="8h306" depart="28855.00" from="I6I7" to="B10A10"/>
    <trip id="8h307" depart="28855.00" from="B11B10" to="B4A4"/>
    <trip id="8h308" depart="28855.00" from="D11D10" to="B10A10"/>
    <trip id="8h309" depart="28855.00" from="E0E1" to="K1L1"/>
    <trip id="8h310" depart="28855.00" from="L6K6" to="K5L5"/>
    <trip id="8h311" depart="28856.00" from="L6K6" to="B1B0"/>
    <trip id="8h312" depart="28856.00" from="dAB" to="K7L7"/>
    <trip id="8h313" depart="28856.00" from="A5B5" to="B10A10"/>
    <trip id="8h314" depart="28856.00" from="L4K4" to="J1J0"/>
    <trip id="8h315" depart="28856.00" from="L6K6" to="B8A8"/>
    <trip id="8h316" depart="28857.00" from="E0E1" to="D1D0"/>
    <trip id="8h317" depart="28857.00" from="D11D10" to="B4A4"/>
    <trip id="8h318" depart="28857.00" from="A5B5" to="H1H0"/>
    <trip id="8h319" depart="28857.00" from="L10K10" to="K5L5"/>
    <trip id="8h320" depart="28857.00" from="A7B7" to="B6A6"/>
    <trip id="8h321" depart="28858.00" from="L2K2" to="G10G11"/>
    <trip id="8h322" depart="28858.00" from="dAB" to="I10I11"/>
    <trip id="8h323" depart="28858.00" from="A3B3" to="F1F0"/>
    <trip id="8h324" depart="28859.00" from="C0C1" to="B1B0"/>
    <trip id="8h325" depart="28859.00" from="D11D10" to="F7G7"/>
    <trip id="8h326" depart="28859.00" from="L6K6" to="B1B0"/>
    <trip id="8h327" depart="28859.00" from="G0G1" to="I10I11"/>
    <trip id="8h328" depart="28859.00" from="L4K4" to="K10J10"/>
    <trip id="8h329" depart="28860.00" from="G0G1" to="B4A4"/>
    <trip id="8h330" depart="28860.00" from="A5B5" to="K9L9"/>
    <trip id="8h331" depart="28860.00" from="L10K10" to="H1H0"/>
    <trip id="8h332" depart="28860.00" from="B11B10" to="F1F0"/>
    <trip id="8h333" depart="28860.00" from="H11H10" to="B4A4"/>
    <trip id="8h334" depart="28860.00" from="C0C1" to="F1F0"/>
    <trip id="8h335" depart="28860.00" from="I4d" to="K5L5"/>
    <trip id="8h336" depart="28860.00" from="A5B5" to="K10K11"/>
    <trip id="8h337" depart="28860.00" from="L10K10" to="K10K11"/>
    <trip id="8h338" depart="28861.00" from="I0I1" to="B4A4"/>
    <trip id="8h339" depart="28861.00" from="dLK" to="K1L1"/>
    <trip id="8h340" depart="28861.00" from="I1I2" to="dBA"/>
    <trip id="8h341" depart="28861.00" from="E0E1" to="K5L5"/>
    <trip id="8h342" depart="28862.00" from="J3J2" to="F1F0"/>
    <trip id="8h343" depart="28862.00" from="E0E1" to="B6A6"/>
    <trip id="8h344" depart="28862.00" from="dAB" to="G10G11"/>
    <trip id="8h345" depart="28862.00" from="A7B7" to="B1B0"/>
    <trip id="8h346" depart="28862.00" from="L2K2" to="K7L7"/>
    <trip id="8h347" depart="28862.00" from="D11D10" to="K3L3"/>
    <trip id="8h348" depart="28862.00" from="E0E1" to="B4A4"/>
    <trip id="8h349" depart="28863.00" from="F11F10" to="F1F0"/>
    <trip id="8h350" depart="28863.00" from="F11F10" to="C10C11"/>
    <trip id="8h351" depart="28863.00" from="H11H10" to="D1D0"/>
    <trip id="8h352" depart="28863.00" from="L6K6" to="E10E11"/>
    <trip id="8h353" depart="28864.00" from="C0C1" to="E10E11"/>
    <trip id="8h354" depart="28864.00" from="dLK" to="K5L5"/>
    <trip id="8h355" depart="28864.00" from="B11B10" to="J1J0"/>
    <trip id="8h356" depart="28864.00" from="A5B5" to="K7L7"/>
    <trip id="8h357" depart="28864.00" from="L2K2" to="C10C11"/>
    <trip id="8h358" depart="28865.00" from="F11F10" to="dBA"/>
    <trip id="8h359" depart="28865.00" from="F7F6" to="D4C4"/>
    <trip id="8h360" depart="28865.00" from="A3B3" to="G8G9"/>
    <trip id="8h361" depart="28865.00" from="dLK" to="E10E11"/>
    <trip id="8h362" depart="28865.00" from="dAB" to="K7L7"/>
    <trip id="8h363" depart="28865.00" from="C0C1" to="K7L7"/>
    <trip id="8h364" depart="28866.00" from="L10K10" to="F3G3"/>
    <trip id="8h365" depart="28866.00" from="A3B3" to="C10B10"/>
    <trip id="8h366" depart="28866.00" from="L10K10" to="H1H0"/>
    <trip id="8h367" depart="28866.00" from="C0C1" to="C5C6"/>
    <trip id="8h368" depart="28866.00" from="F11F10" to="K5L5"/>
    <trip id="8h369" depart="28866.00" from="A5B5" to="K9L9"/>
    <trip id="8h370" depart="28866.00" from="H11H10" to="B8A8"/>
    <trip id="8h371" depart="28866.00" from="F11F10" to="J1J0"/>
    <trip id="8h372" depart="28867.00" from="F11F10" to="K10K11"/>
    <trip id="8h373" depart="28867.00" from="dLK" to="B1B0"/>
    <trip id="8h374" depart="28867.00" from="H11H10" to="dKL"/>
    <trip id="8h375" depart="28867.00" from="E0E1" to="G10G11"/>
    <trip id="8h376" depart="28867.00" from="A1B1" to="K5L5"/>
    <trip id="8h377" depart="28867.00" from="L10K10" to="J1J0"/>
    <trip id="8h378" depart="28868.00" from="A3B3" to="H2G2"/>
    <trip id="8h379" depart="28868.00" from="L2K2" to="G10G11"/>
    <trip id="8h380" depart="28868.00" from="L2K2" to="G10G11"/>
    <trip id="8h381" depart="28868.00" from="A3B3" to="B6A6"/>
    <trip id="8h382" depart="28868.00" from="dAB" to="H1H0"/>
    <trip id="8h383" depart="28869.00" from="B6B5" to="K3L3"/>
    <trip id="8h384" depart="28869.00" from="E0E1" to="K5L5"/>
    <trip id="8h385" depart="28869.00" from="A5B5" to="E10E11"/>
    <trip id="8h386" depart="28869.00" from="dLK" to="G1H1"/>
    <trip id="8h387" depart="28869.00" from="dAB" to="H1H0"/>
    <trip id="8h388" depart="28870.00" from="J10I10" to="K7K8"/>
    <trip id="8h389" depart="28870.00" from="D11D10" to="B1B0"/>
    <trip id="8h390" depart="28870.00" from="J10J9" to="F1F0"/>
    <trip id="8h391" depart="28870.00" from="A3B3" to="K9L9"/>
    <trip id="8h392" depart="28870.00" from="dLK" to="C10C11"/>
    <trip id="8h393" depart="28871.00" from="J11J10" to="E10E11"/>
    <trip id="8h394" depart="28871.00" from="J11J10" to="K5L5"/>
    <trip id="8h395" depart="28871.00" from="A3B3" to="K3d"/>
    <trip id="8h396" depart="28871.00" from="E0E1" to="I10I11"/>
    <trip id="8h397" depart="28872.00" from="L2K2" to="I10I11"/>
    <trip id="8h398" depart="28872.00" from="E2E3" to="J7J6"/>
    <trip id="8h399" depart="28872.00" from="A5B5" to="K1L1"/>
    <trip id="8h400" depart="28872.00" from="E0E1" to="I10I11"/>
    <trip id="8h401" depart="28872.00" from="C0C1" to="F1F0"/>
    <trip id="8h402" depart="28872.00" from="dAB" to="G10G11"/>
    <trip id="8h403" depart="28872.00" from="L6K6" to="F8E8"/>
    <trip id="8h404" depart="28872.00" from="A5B5" to="K10K11"/>
    <trip id="8h405" depart="28873.00" from="D11D10" to="B1B0"/>
    <trip id="8h406" depart="28873.00" from="L8K8" to="K7L7"/>
    <trip id="8h407" depart="28873.00" from="A5B5" to="B6A6"/>
    <trip id="8h408" depart="28873.00" from="L4K4" to="B10A10"/>
    <trip id="8h409" depart="28873.00" from="E0E1" to="K5L5"/>
    <trip id="8h410" depart="28874.00" from="J11J10" to="B2A2"/>
    <trip id="8h411" depart="28874.00" from="dLK" to="K1L1"/>
    <trip id="8h412" depart="28874.00" from="L2K2" to="K7L7"/>
    <trip id="8h413" depart="28874.00" from="dLK" to="J1J0"/>
    <trip id="8h414" depart="28874.00" from="K0K1" to="D1D0"/>
    <trip id="8h415" depart="28874.00" from="dLK" to="F1F0"/>
    <trip id="8h416" depart="28875.00" from="A5B5" to="B4A4"/>
    <trip id="8h417" depart="28875.00" from="D11D10" to="K1L1"/>
    <trip id="8h418" depart="28875.00" from="dAB" to="K9L9"/>
    <trip id="8h419" depart="28875.00" from="J11J10" to="H7I7"/>
    <trip id="8h420" depart="28875.00" from="C7D7" to="H1H0"/>
    <trip id="8h421" depart="28875.00" from="A9B9" to="dBA"/>
    <trip id="8h422" depart="28875.00" from="K0K1" to="K1L1"/>
    <trip id="8h423" depart="28876.00" from="L6K6" to="B10A10"/>
    <trip id="8h424" depart="28876.00" from="J11J10" to="I10I11"/>
    <trip id="8h425" depart="28876.00" from="J11J10" to="G3H3"/>
    <trip id="8h426" depart="28876.00" from="dIJ" to="G10G11"/>
    <trip id="8h427" depart="28876.00" from="A3B3" to="B1B0"/>
    <trip id="8h428" depart="28877.00" from="G0G1" to="B6A6"/>
    <trip id="8h429" depart="28877.00" from="L10K10" to="K1L1"/>
    <trip id="8h430" depart="28877.00" from="E0E1" to="I10I11"/>
    <trip id="8h431" depart="28877.00" from="G0G1" to="C10C11"/>
    <trip id="8h432" depart="28877.00" from="A5B5" to="C10C11"/>
    <trip id="8h433" depart="28877.00" from="J11J10" to="B8A8"/>
    <trip id="8h434" depart="28878.00" from="D11D10" to="I10I11"/>
    <trip id="8h435" depart="28878.00" from="L2K2" to="G4F4"/>
    <trip id="8h436" depart="28878.00" from="G4G5" to="D1D0"/>
    <trip id="8h437" depart="28878.00" from="dAB" to="H1H0"/>
    <trip id="8h438" depart="28878.00" from="D8C8" to="B1B0"/>
    <trip id="8h439" depart="28878.00" from="L8K8" to="K10K11"/>
    <trip id="8h440" depart="28878.00" from="H11H10" to="K7L7"/>
    <trip id="8h441" depart="28878.00" from="L8K8" to="K1L1"/>
    <trip id="8h442" depart="28879.00" from="E5F5" to="I10I11"/>
    <trip id="8h443" depart="28879.00" from="I0I1" to="B1B0"/>
    <trip id="8h444" depart="28879.00" from="L2K2" to="C10C11"/>
    <trip id="8h445" depart="28879.00" from="dLK" to="E10E11"/>
    <trip id="8h446" depart="28879.00" from="dAB" to="K3L3"/>
    <trip id="8h447" depart="28879.00" from="H11H10" to="G6F6"/>
    <trip id="8h448" depart="28879.00" from="A7B7" to="D1D0"/>
    <trip id="8h449" depart="28880.00" from="G0G1" to="J1J0"/>
    <trip id="8h450" depart="28880.00" from="D11D10" to="J1J0"/>
    <trip id="8h451" depart="28880.00" from="dLK" to="K3L3"/>
    <trip id="8h452" depart="28880.00" from="D11D10" to="K7L7"/>
    <trip id="8h453" depart="28880.00" from="L10K10" to="C3D3"/>
    <trip id="8h454" depart="28880.00" from="K0K1" to="dKL"/>
    <trip id="8h455" depart="28881.00" from="G0G1" to="dKL"/>
    <trip id="8h456" depart="28881.00" from="J11J10" to="J1J0"/>
    <trip id="8h457" depart="28881.00" from="K0K1" to="B10A10"/>
    <trip id="8h458" depart="28882.00" from="A1B1" to="D1D0"/>
    <trip id="8h459" depart="28882.00" from="K0K1" to="F1F0"/>
    <trip id="8h460" depart="28882.00" from="A7B7" to="B6A6"/>
    <trip id="8h461" depart="28882.00" from="K0K1" to="H1H0"/>
    <trip id="8h462" depart="28882.00" from="A9B9" to="dBA"/>