<?xml version="1.0" encoding="UTF-8"?>
<!-- generated on 2020-12-09 03:21:39.668281 by randomTrips.py v1_7_0+0000-714814baed
  options: -n .\data/grid01-bcn_100.net.xml <doubleminus>prefix=16h <doubleminus>fringe-factor 100 -b 57600 -e 61200 -p0.1879502975879712 <doubleminus>binomial 10 -odata/random/random_h_16-bcn_100.trips.rou.xml <doubleminus>edge-permission=passenger
-->
<routes xmlns:xsi="http://www.w3.org/2001/XMLSchema-instance" xsi:noNamespaceSchemaLocation="http://sumo.dlr.de/xsd/routes_file.xsd">
    <trip id="16h0" depart="57600.00" from="C0C1" to="B8A8"/>
    <trip id="16h1" depart="57600.00" from="F11F10" to="B10A10"/>
    <trip id="16h2" depart="57600.00" from="H11H10" to="B10A10"/>
    <trip id="16h3" depart="57600.00" from="J7K7" to="H1H0"/>
    <trip id="16h4" depart="57600.00" from="I0I1" to="K5L5"/>
    <trip id="16h5" depart="57600.00" from="L4K4" to="K1L1"/>
    <trip id="16h6" depart="57601.00" from="A7B7" to="dJK"/>
    <trip id="16h7" depart="57601.00" from="A5B5" to="B2A2"/>
    <trip id="16h8" depart="57601.00" from="H9H8" to="K7L7"/>
    <trip id="16h9" depart="57602.00" from="B11B10" to="C10C11"/>
    <trip id="16h10" depart="57602.00" from="B11B10" to="B2A2"/>
    <trip id="16h11" depart="57602.00" from="J11J10" to="E10E11"/>
    <trip id="16h12" depart="57602.00" from="B11B10" to="C10C11"/>
    <trip id="16h13" depart="57603.00" from="L10K10" to="B4A4"/>
    <trip id="16h14" depart="57603.00" from="dLK" to="J1J0"/>
    <trip id="16h15" depart="57603.00" from="A1B1" to="D1D0"/>
    <trip id="16h16" depart="57603.00" from="B11B10" to="dBA"/>
    <trip id="16h17" depart="57603.00" from="K0K1" to="E10E11"/>
    <trip id="16h18" depart="57604.00" from="C0C1" to="B8A8"/>
    <trip id="16h19" depart="57604.00" from="I0I1" to="K9L9"/>
    <trip id="16h20" depart="57604.00" from="B11B10" to="dKL"/>
    <trip id="16h21" depart="57604.00" from="A5B5" to="B1B0"/>
    <trip id="16h22" depart="57604.00" from="J11J10" to="K5L5"/>
    <trip id="16h23" depart="57604.00" from="A3B3" to="E10E11"/>
    <trip id="16h24" depart="57604.00" from="dLK" to="K7L7"/>
    <trip id="16h25" depart="57605.00" from="L10K10" to="K10K11"/>
    <trip id="16h26" depart="57605.00" from="J11J10" to="B2A2"/>
    <trip id="16h27" depart="57605.00" from="G0G1" to="dGF"/>
    <trip id="16h28" depart="57605.00" from="G6G7" to="B6A6"/>
    <trip id="16h29" depart="57605.00" from="J11J10" to="J1J0"/>
    <trip id="16h30" depart="57605.00" from="L2K2" to="H1H0"/>
    <trip id="16h31" depart="57606.00" from="A1B1" to="D1D0"/>
    <trip id="16h32" depart="57606.00" from="dAB" to="K9L9"/>
    <trip id="16h33" depart="57606.00" from="A3B3" to="K9L9"/>
    <trip id="16h34" depart="57606.00" from="G0G1" to="B1B0"/>
    <trip id="16h35" depart="57606.00" from="G0G1" to="H6H5"/>
    <trip id="16h36" depart="57607.00" from="L8K8" to="F1F0"/>
    <trip id="16h37" depart="57607.00" from="H11H10" to="K1L1"/>
    <trip id="16h38" depart="57607.00" from="D11D10" to="dKL"/>
    <trip id="16h39" depart="57607.00" from="H11H10" to="B2A2"/>
    <trip id="16h40" depart="57607.00" from="D11D10" to="I10I11"/>
    <trip id="16h41" depart="57607.00" from="B11B10" to="B1B0"/>
    <trip id="16h42" depart="57607.00" from="L8K8" to="K7L7"/>
    <trip id="16h43" depart="57607.00" from="B11B10" to="K10K11"/>
    <trip id="16h44" depart="57608.00" from="A7B7" to="dBA"/>
    <trip id="16h45" depart="57608.00" from="L4K4" to="K5L5"/>
    <trip id="16h46" depart="57608.00" from="A5B5" to="F1F0"/>
    <trip id="16h47" depart="57608.00" from="G0G1" to="K1L1"/>
    <trip id="16h48" depart="57608.00" from="E8D8" to="D1D0"/>
    <trip id="16h49" depart="57608.00" from="A9B9" to="F4E4"/>
    <trip id="16h50" depart="57609.00" from="C0C1" to="B8A8"/>
    <trip id="16h51" depart="57609.00" from="L6K6" to="H7H6"/>
    <trip id="16h52" depart="57609.00" from="dLK" to="K7L7"/>
    <trip id="16h53" depart="57609.00" from="G0G1" to="B8A8"/>
    <trip id="16h54" depart="57609.00" from="A3B3" to="E10E11"/>
    <trip id="16h55" depart="57610.00" from="L4K4" to="G10G11"/>
    <trip id="16h56" depart="57610.00" from="dJK" to="dKL"/>
    <trip id="16h57" depart="57610.00" from="C0C1" to="dKL"/>
    <trip id="16h58" depart="57610.00" from="I0I1" to="G9H9"/>
    <trip id="16h59" depart="57611.00" from="dLK" to="B1B0"/>
    <trip id="16h60" depart="57611.00" from="I1I2" to="K10K11"/>
    <trip id="16h61" depart="57611.00" from="A5B5" to="K9L9"/>
    <trip id="16h62" depart="57611.00" from="I10H10" to="J1J0"/>
    <trip id="16h63" depart="57611.00" from="I0I1" to="H1H0"/>
    <trip id="16h64" depart="57611.00" from="L10K10" to="B8A8"/>
    <trip id="16h65" depart="57611.00" from="K0K1" to="C3D3"/>
    <trip id="16h66" depart="57611.00" from="L2K2" to="B1B0"/>
    <trip id="16h67" depart="57611.00" from="dLK" to="dKL"/>
    <trip id="16h68" depart="57612.00" from="B11B10" to="C10C11"/>
    <trip id="16h69" depart="57612.00" from="A7B7" to="K7L7"/>
    <trip id="16h70" depart="57612.00" from="L4K4" to="C3C4"/>
    <trip id="16h71" depart="57613.00" from="A5B5" to="B2A2"/>
    <trip id="16h72" depart="57613.00" from="J11J10" to="K1L1"/>
    <trip id="16h73" depart="57613.00" from="J11J10" to="C10C11"/>
    <trip id="16h74" depart="57613.00" from="L8K8" to="K7L7"/>
    <trip id="16h75" depart="57613.00" from="F11F10" to="C10C11"/>
    <trip id="16h76" depart="57613.00" from="L2K2" to="J1J0"/>
    <trip id="16h77" depart="57613.00" from="L2K2" to="H8H7"/>
    <trip id="16h78" depart="57614.00" from="A1B1" to="B1B0"/>
    <trip id="16h79" depart="57614.00" from="A7B7" to="D1D0"/>
    <trip id="16h80" depart="57615.00" from="B11B10" to="B2A2"/>
    <trip id="16h81" depart="57615.00" from="J11J10" to="B4A4"/>
    <trip id="16h82" depart="57616.00" from="L10K10" to="D1D0"/>
    <trip id="16h83" depart="57616.00" from="L4K4" to="B2A2"/>
    <trip id="16h84" depart="57616.00" from="L4K4" to="G10G11"/>
    <trip id="16h85" depart="57616.00" from="L4K4" to="B8A8"/>
    <trip id="16h86" depart="57617.00" from="A9B9" to="D1D0"/>
    <trip id="16h87" depart="57617.00" from="J11J10" to="E4E5"/>
    <trip id="16h88" depart="57617.00" from="dLK" to="B6A6"/>
    <trip id="16h89" depart="57617.00" from="A5B5" to="F1F0"/>
    <trip id="16h90" depart="57618.00" from="J11J10" to="H1H0"/>
    <trip id="16h91" depart="57618.00" from="I0I1" to="B9B8"/>
    <trip id="16h92" depart="57618.00" from="dAB" to="H1H0"/>
    <trip id="16h93" depart="57618.00" from="A3B3" to="K10K11"/>
    <trip id="16h94" depart="57618.00" from="D11D10" to="K7L7"/>
    <trip id="16h95" depart="57619.00" from="D11D10" to="F1F0"/>
    <trip id="16h96" depart="57619.00" from="C0C1" to="B4A4"/>
    <trip id="16h97" depart="57619.00" from="dAB" to="K10K11"/>
    <trip id="16h98" depart="57619.00" from="H4G4" to="B10A10"/>
    <trip id="16h99" depart="57619.00" from="F11F10" to="I10I11"/>
    <trip id="16h100" depart="57619.00" from="F11F10" to="B8A8"/>
    <trip id="16h101" depart="57620.00" from="L8K8" to="K5L5"/>
    <trip id="16h102" depart="57620.00" from="A5B5" to="H1H0"/>
    <trip id="16h103" depart="57620.00" from="L4K4" to="K3L3"/>
    <trip id="16h104" depart="57620.00" from="A9B9" to="B10A10"/>
    <trip id="16h105" depart="57620.00" from="G0G1" to="K7L7"/>
    <trip id="16h106" depart="57620.00" from="F11F10" to="J1J0"/>
    <trip id="16h107" depart="57620.00" from="K5K6" to="G10G11"/>
    <trip id="16h108" depart="57620.00" from="K0K1" to="B10A10"/>
    <trip id="16h109" depart="57621.00" from="F11F10" to="B6A6"/>
    <trip id="16h110" depart="57621.00" from="A3B3" to="B8A8"/>
    <trip id="16h111" depart="57621.00" from="L4K4" to="K10K11"/>
    <trip id="16h112" depart="57622.00" from="L6K6" to="H4G4"/>
    <trip id="16h113" depart="57622.00" from="C0C1" to="B8A8"/>
    <trip id="16h114" depart="57622.00" from="J11J10" to="C10C11"/>
    <trip id="16h115" depart="57623.00" from="C0C1" to="C10C11"/>
    <trip id="16h116" depart="57623.00" from="H11H10" to="B4A4"/>
    <trip id="16h117" depart="57623.00" from="K1K2" to="K1L1"/>
    <trip id="16h118" depart="57623.00" from="F11F10" to="H1H0"/>
    <trip id="16h119" depart="57623.00" from="A9B9" to="F1F0"/>
    <trip id="16h120" depart="57624.00" from="A1B1" to="D6D5"/>
    <trip id="16h121" depart="57624.00" from="L2K2" to="H2G2"/>
    <trip id="16h122" depart="57624.00" from="B11B10" to="F1F0"/>
    <trip id="16h123" depart="57624.00" from="D11D10" to="K10K11"/>
    <trip id="16h124" depart="57624.00" from="A7B7" to="G10G11"/>
    <trip id="16h125" depart="57624.00" from="J11J10" to="B10A10"/>
    <trip id="16h126" depart="57625.00" from="I0I1" to="B10A10"/>
    <trip id="16h127" depart="57625.00" from="G0G1" to="B1B0"/>
    <trip id="16h128" depart="57625.00" from="B11B10" to="D1D0"/>
    <trip id="16h129" depart="57625.00" from="L2K2" to="K7L7"/>
    <trip id="16h130" depart="57625.00" from="A3B3" to="B10A10"/>
    <trip id="16h131" depart="57625.00" from="J8I8" to="K5L5"/>
    <trip id="16h132" depart="57626.00" from="A1B1" to="B4A4"/>
    <trip id="16h133" depart="57626.00" from="K0K1" to="I10I11"/>
    <trip id="16h134" depart="57626.00" from="L10K10" to="K3L3"/>
    <trip id="16h135" depart="57626.00" from="J11J10" to="K3L3"/>
    <trip id="16h136" depart="57626.00" from="L4K4" to="dKL"/>
    <trip id="16h137" depart="57626.00" from="A1B1" to="D1D0"/>
    <trip id="16h138" depart="57627.00" from="L10K10" to="B1B0"/>
    <trip id="16h139" depart="57627.00" from="L2K2" to="K7L7"/>
    <trip id="16h140" depart="57627.00" from="dLK" to="K5L5"/>
    <trip id="16h141" depart="57627.00" from="F11F10" to="E10E11"/>
    <trip id="16h142" depart="57627.00" from="D11D10" to="K7L7"/>
    <trip id="16h143" depart="57628.00" from="dLK" to="J1J0"/>
    <trip id="16h144" depart="57628.00" from="L10K10" to="dKL"/>
    <trip id="16h145" depart="57628.00" from="L4K4" to="H1H0"/>
    <trip id="16h146" depart="57628.00" from="F11F10" to="K1L1"/>
    <trip id="16h147" depart="57628.00" from="L6K6" to="K7L7"/>
    <trip id="16h148" depart="57628.00" from="L8K8" to="B8A8"/>
    <trip id="16h149" depart="57628.00" from="J11J10" to="E10E11"/>
    <trip id="16h150" depart="57628.00" from="L6K6" to="B6A6"/>
    <trip id="16h151" depart="57629.00" from="L4K4" to="D1D0"/>
    <trip id="16h152" depart="57629.00" from="A1B1" to="dBA"/>
    <trip id="16h153" depart="57629.00" from="L10K10" to="G10G11"/>
    <trip id="16h154" depart="57629.00" from="L4K4" to="B2A2"/>
    <trip id="16h155" depart="57629.00" from="K0K1" to="D1D0"/>
    <trip id="16h156" depart="57630.00" from="H11H10" to="F1F0"/>
    <trip id="16h157" depart="57630.00" from="L10K10" to="C10C11"/>
    <trip id="16h158" depart="57630.00" from="A5B5" to="B6A6"/>
    <trip id="16h159" depart="57630.00" from="H11H10" to="K3L3"/>
    <trip id="16h160" depart="57630.00" from="B11B10" to="G10G11"/>
    <trip id="16h161" depart="57630.00" from="C0C1" to="B2A2"/>
    <trip id="16h162" depart="57631.00" from="B11B10" to="B6A6"/>
    <trip id="16h163" depart="57631.00" from="H11H10" to="C10C11"/>
    <trip id="16h164" depart="57631.00" from="L8K8" to="G10G11"/>
    <trip id="16h165" depart="57631.00" from="F11F10" to="B6A6"/>
    <trip id="16h166" depart="57631.00" from="dAB" to="G10G11"/>
    <trip id="16h167" depart="57632.00" from="A3B3" to="J1J0"/>
    <trip id="16h168" depart="57632.00" from="A7B7" to="I10I11"/>
    <trip id="16h169" depart="57632.00" from="dLK" to="B2A2"/>
    <trip id="16h170" depart="57632.00" from="H11H10" to="F6E6"/>
    <trip id="16h171" depart="57632.00" from="L6K6" to="dKL"/>
    <trip id="16h172" depart="57632.00" from="J11J10" to="J1J0"/>
    <trip id="16h173" depart="57633.00" from="B11B10" to="K10K11"/>
    <trip id="16h174" depart="57633.00" from="A9B9" to="B1B0"/>
    <trip id="16h175" depart="57633.00" from="F6E6" to="I10I11"/>
    <trip id="16h176" depart="57633.00" from="B11B10" to="K1L1"/>
    <trip id="16h177" depart="57633.00" from="K0K1" to="dBA"/>
    <trip id="16h178" depart="57634.00" from="H11H10" to="J5J4"/>
    <trip id="16h179" depart="57634.00" from="A7B7" to="D1D0"/>
    <trip id="16h180" depart="57634.00" from="A5B5" to="K10K11"/>
    <trip id="16h181" depart="57635.00" from="G0G1" to="B1B0"/>
    <trip id="16h182" depart="57635.00" from="F11F10" to="D1D0"/>
    <trip id="16h183" depart="57635.00" from="A5B5" to="dKL"/>
    <trip id="16h184" depart="57635.00" from="A1B1" to="K3L3"/>
    <trip id="16h185" depart="57636.00" from="J9K9" to="dBA"/>
    <trip id="16h186" depart="57636.00" from="I0I1" to="J1J0"/>
    <trip id="16h187" depart="57636.00" from="A5B5" to="D2C2"/>
    <trip id="16h188" depart="57636.00" from="K0K1" to="K7L7"/>
    <trip id="16h189" depart="57636.00" from="K10J10" to="C10C11"/>
    <trip id="16h190" depart="57636.00" from="D11D10" to="D1D0"/>
    <trip id="16h191" depart="57637.00" from="H11H10" to="dKL"/>
    <trip id="16h192" depart="57637.00" from="A9B9" to="E10E11"/>
    <trip id="16h193" depart="57637.00" from="H5I5" to="dBA"/>
    <trip id="16h194" depart="57637.00" from="K8J8" to="B2A2"/>
    <trip id="16h195" depart="57638.00" from="A7B7" to="H7I7"/>
    <trip id="16h196" depart="57638.00" from="dLK" to="dBA"/>
    <trip id="16h197" depart="57638.00" from="A5B5" to="K7L7"/>
    <trip id="16h198" depart="57638.00" from="L10K10" to="H1H0"/>
    <trip id="16h199" depart="57638.00" from="L6K6" to="dKL"/>
    <trip id="16h200" depart="57638.00" from="H8G8" to="E10E11"/>
    <trip id="16h201" depart="57638.00" from="L8K8" to="K7L7"/>
    <trip id="16h202" depart="57639.00" from="L4K4" to="F1F0"/>
    <trip id="16h203" depart="57639.00" from="L4K4" to="C10C11"/>
    <trip id="16h204" depart="57639.00" from="I0I1" to="dKL"/>
    <trip id="16h205" depart="57639.00" from="A7B7" to="H1H0"/>
    <trip id="16h206" depart="57639.00" from="H9H8" to="H1H0"/>
    <trip id="16h207" depart="57639.00" from="D11D10" to="B6A6"/>
    <trip id="16h208" depart="57639.00" from="L2K2" to="B1B0"/>
    <trip id="16h209" depart="57640.00" from="K0K1" to="K5L5"/>
    <trip id="16h210" depart="57640.00" from="A1B1" to="G9G10"/>
    <trip id="16h211" depart="57640.00" from="H11H10" to="G10G11"/>
    <trip id="16h212" depart="57641.00" from="K0K1" to="B4A4"/>
    <trip id="16h213" depart="57641.00" from="dLK" to="D1D0"/>
    <trip id="16h214" depart="57641.00" from="D11D10" to="K1L1"/>
    <trip id="16h215" depart="57642.00" from="A3B3" to="J1J0"/>
    <trip id="16h216" depart="57642.00" from="A5B5" to="J1J0"/>
    <trip id="16h217" depart="57642.00" from="K1K2" to="K9L9"/>
    <trip id="16h218" depart="57642.00" from="L4K4" to="C10C11"/>
    <trip id="16h219" depart="57642.00" from="A7B7" to="H1H0"/>
    <trip id="16h220" depart="57643.00" from="A3B3" to="K9L9"/>
    <trip id="16h221" depart="57643.00" from="dAB" to="B4A4"/>
    <trip id="16h222" depart="57643.00" from="B7C7" to="B9C9"/>
    <trip id="16h223" depart="57643.00" from="L4K4" to="K9L9"/>
    <trip id="16h224" depart="57643.00" from="F11F10" to="D1D0"/>
    <trip id="16h225" depart="57644.00" from="B11B10" to="K7L7"/>
    <trip id="16h226" depart="57644.00" from="E0E1" to="G10G11"/>
    <trip id="16h227" depart="57644.00" from="I0I1" to="I10I11"/>
    <trip id="16h228" depart="57644.00" from="dLK" to="K10K11"/>
    <trip id="16h229" depart="57644.00" from="I0I1" to="K10K11"/>
    <trip id="16h230" depart="57644.00" from="J11J10" to="G2F2"/>
    <trip id="16h231" depart="57645.00" from="L4K4" to="J1J0"/>
    <trip id="16h232" depart="57645.00" from="J11J10" to="J1J0"/>
    <trip id="16h233" depart="57645.00" from="F11F10" to="I10I11"/>
    <trip id="16h234" depart="57646.00" from="C0C1" to="K3L3"/>
    <trip id="16h235" depart="57646.00" from="A7B7" to="H1H0"/>
    <trip id="16h236" depart="57646.00" from="dAB" to="K7L7"/>
    <trip id="16h237" depart="57646.00" from="L6K6" to="G10G11"/>
    <trip id="16h238" depart="57646.00" from="A5B5" to="dKL"/>
    <trip id="16h239" depart="57646.00" from="dLK" to="K7L7"/>
    <trip id="16h240" depart="57647.00" from="L4K4" to="B10A10"/>
    <trip id="16h241" depart="57647.00" from="K0K1" to="K10K11"/>
    <trip id="16h242" depart="57648.00" from="B11B10" to="B10A10"/>
    <trip id="16h243" depart="57648.00" from="A3B3" to="K7L7"/>
    <trip id="16h244" depart="57648.00" from="F11F10" to="B4A4"/>
    <trip id="16h245" depart="57648.00" from="G0G1" to="B2A2"/>
    <trip id="16h246" depart="57649.00" from="G0G1" to="K10K11"/>
    <trip id="16h247" depart="57649.00" from="L2K2" to="B4A4"/>
    <trip id="16h248" depart="57649.00" from="A5B5" to="G10G11"/>
    <trip id="16h249" depart="57649.00" from="dE7" to="B10A10"/>
    <trip id="16h250" depart="57649.00" from="F11F10" to="dDC"/>
    <trip id="16h251" depart="57649.00" from="K0K1" to="H1H0"/>
    <trip id="16h252" depart="57650.00" from="E2E3" to="B6A6"/>
    <trip id="16h253" depart="57650.00" from="L6K6" to="G10G11"/>
    <trip id="16h254" depart="57650.00" from="L4K4" to="B8A8"/>
    <trip id="16h255" depart="57650.00" from="I0I1" to="B1B0"/>
    <trip id="16h256" depart="57650.00" from="B11B10" to="K9L9"/>
    <trip id="16h257" depart="57650.00" from="A7B7" to="K9L9"/>
    <trip id="16h258" depart="57651.00" from="L6K6" to="B4A4"/>
    <trip id="16h259" depart="57651.00" from="B2B1" to="B6A6"/>
    <trip id="16h260" depart="57651.00" from="A1B1" to="K5L5"/>
    <trip id="16h261" depart="57651.00" from="D11D10" to="B6A6"/>
    <trip id="16h262" depart="57651.00" from="L2K2" to="H1H0"/>
    <trip id="16h263" depart="57651.00" from="L2K2" to="H1H0"/>
    <trip id="16h264" depart="57651.00" from="H10H9" to="dBA"/>
    <trip id="16h265" depart="57651.00" from="L4K4" to="K9L9"/>
    <trip id="16h266" depart="57652.00" from="G0G1" to="dKL"/>
    <trip id="16h267" depart="57652.00" from="G0G1" to="E7E8"/>
    <trip id="16h268" depart="57652.00" from="dAB" to="B1B0"/>
    <trip id="16h269" depart="57652.00" from="J11J10" to="B1B0"/>
    <trip id="16h270" depart="57652.00" from="J11J10" to="H4H3"/>
    <trip id="16h271" depart="57652.00" from="dLK" to="H1H0"/>
    <trip id="16h272" depart="57652.00" from="J11J10" to="B2A2"/>
    <trip id="16h273" depart="57653.00" from="F7G7" to="B8A8"/>
    <trip id="16h274" depart="57653.00" from="F9G9" to="F1F0"/>
    <trip id="16h275" depart="57653.00" from="F11F10" to="K10K11"/>
    <trip id="16h276" depart="57653.00" from="A7B7" to="dBA"/>
    <trip id="16h277" depart="57653.00" from="L6K6" to="B2A2"/>
    <trip id="16h278" depart="57653.00" from="L10K10" to="K5L5"/>
    <trip id="16h279" depart="57654.00" from="A5B5" to="D8D7"/>
    <trip id="16h280" depart="57654.00" from="I0I1" to="B8A8"/>
    <trip id="16h281" depart="57655.00" from="A5B5" to="K7L7"/>
    <trip id="16h282" depart="57655.00" from="L2K2" to="I10I11"/>
    <trip id="16h283" depart="57655.00" from="dAB" to="K7L7"/>
    <trip id="16h284" depart="57656.00" from="A9B9" to="K1L1"/>
    <trip id="16h285" depart="57656.00" from="D11D10" to="B10A10"/>
    <trip id="16h286" depart="57656.00" from="A7B7" to="J1J0"/>
    <trip id="16h287" depart="57656.00" from="L2K2" to="B8A8"/>
    <trip id="16h288" depart="57656.00" from="D11D10" to="E10E11"/>
    <trip id="16h289" depart="57657.00" from="A3B3" to="B4A4"/>
    <trip id="16h290" depart="57657.00" from="K0K1" to="G10G11"/>
    <trip id="16h291" depart="57657.00" from="C0C1" to="K3L3"/>
    <trip id="16h292" depart="57657.00" from="F11F10" to="C10C11"/>
    <trip id="16h293" depart="57657.00" from="K0K1" to="B1B0"/>
    <trip id="16h294" depart="57657.00" from="I6I7" to="B10A10"/>
    <trip id="16h295" depart="57657.00" from="B11B10" to="B4A4"/>
    <trip id="16h296" depart="57658.00" from="D11D10" to="B10A10"/>
    <trip id="16h297" depart="57658.00" from="E0E1" to="K1L1"/>
    <trip id="16h298" depart="57658.00" from="L6K6" to="K5L5"/>
    <trip id="16h299" depart="57658.00" from="L6K6" to="B1B0"/>
    <trip id="16h300" depart="57658.00" from="dAB" to="K7L7"/>
    <trip id="16h301" depart="57658.00" from="A5B5" to="B10A10"/>
    <trip id="16h302" depart="57659.00" from="L4K4" to="J1J0"/>
    <trip id="16h303" depart="57659.00" from="L6K6" to="B8A8"/>
    <trip id="16h304" depart="57659.00" from="E0E1" to="D1D0"/>
    <trip id="16h305" depart="57659.00" from="D11D10" to="B4A4"/>
    <trip id="16h306" depart="57659.00" from="A5B5" to="H1H0"/>
    <trip id="16h307" depart="57659.00" from="L10K10" to="K5L5"/>
    <trip id="16h308" depart="57660.00" from="A7B7" to="B6A6"/>
    <trip id="16h309" depart="57660.00" from="L2K2" to="G10G11"/>
    <trip id="16h310" depart="57660.00" from="dAB" to="I10I11"/>
    <trip id="16h311" depart="57661.00" from="A3B3" to="F1F0"/>
    <trip id="16h312" depart="57661.00" from="C0C1" to="B1B0"/>
    <trip id="16h313" depart="57661.00" from="D11D10" to="F7G7"/>
    <trip id="16h314" depart="57661.00" from="L6K6" to="B1B0"/>
    <trip id="16h315" depart="57662.00" from="G0G1" to="I10I11"/>
    <trip id="16h316" depart="57662.00" from="L4K4" to="K10J10"/>
    <trip id="16h317" depart="57662.00" from="G0G1" to="B4A4"/>
    <trip id="16h318" depart="57662.00" from="A5B5" to="K9L9"/>
    <trip id="16h319" depart="57662.00" from="L10K10" to="H1H0"/>
    <trip id="16h320" depart="57662.00" from="B11B10" to="F1F0"/>
    <trip id="16h321" depart="57662.00" from="H11H10" to="B4A4"/>
    <trip id="16h322" depart="57662.00" from="C0C1" to="F1F0"/>
    <trip id="16h323" depart="57663.00" from="I4d" to="K5L5"/>
    <trip id="16h324" depart="57663.00" from="A5B5" to="K10K11"/>
    <trip id="16h325" depart="57663.00" from="L10K10" to="K10K11"/>
    <trip id="16h326" depart="57663.00" from="I0I1" to="B4A4"/>
    <trip id="16h327" depart="57663.00" from="dLK" to="K1L1"/>
    <trip id="16h328" depart="57663.00" from="I1I2" to="dBA"/>
    <trip id="16h329" depart="57663.00" from="E0E1" to="K5L5"/>
    <trip id="16h330" depart="57664.00" from="J3J2" to="F1F0"/>
    <trip id="16h331" depart="57664.00" from="E0E1" to="B6A6"/>
    <trip id="16h332" depart="57664.00" from="dAB" to="G10G11"/>
    <trip id="16h333" depart="57664.00" from="A7B7" to="B1B0"/>
    <trip id="16h334" depart="57665.00" from="L2K2" to="K7L7"/>
    <trip id="16h335" depart="57665.00" from="D11D10" to="K3L3"/>
    <trip id="16h336" depart="57665.00" from="E0E1" to="B4A4"/>
    <trip id="16h337" depart="57665.00" from="F11F10" to="F1F0"/>
    <trip id="16h338" depart="57665.00" from="F11F10" to="C10C11"/>
    <trip id="16h339" depart="57666.00" from="H11H10" to="D1D0"/>
    <trip id="16h340" depart="57666.00" from="L6K6" to="E10E11"/>
    <trip id="16h341" depart="57666.00" from="C0C1" to="E10E11"/>
    <trip id="16h342" depart="57666.00" from="dLK" to="K5L5"/>
    <trip id="16h343" depart="57666.00" from="B11B10" to="J1J0"/>
    <trip id="16h344" depart="57667.00" from="L6K6" to="K7L7"/>
    <trip id="16h345" depart="57667.00" from="L2K2" to="C10C11"/>
    <trip id="16h346" depart="57667.00" from="F11F10" to="dBA"/>
    <trip id="16h347" depart="57667.00" from="F7F6" to="D4C4"/>
    <trip id="16h348" depart="57667.00" from="A3B3" to="G8G9"/>
    <trip id="16h349" depart="57667.00" from="dLK" to="E10E11"/>
    <trip id="16h350" depart="57667.00" from="dAB" to="K7L7"/>
    <trip id="16h351" depart="57668.00" from="C0C1" to="K7L7"/>
    <trip id="16h352" depart="57668.00" from="L10K10" to="F3G3"/>
    <trip id="16h353" depart="57668.00" from="A3B3" to="C10B10"/>
    <trip id="16h354" depart="57668.00" from="A5B5" to="C10C11"/>
    <trip id="16h355" depart="57669.00" from="A3B3" to="F1F0"/>
    <trip id="16h356" depart="57669.00" from="A5B5" to="K9L9"/>
    <trip id="16h357" depart="57669.00" from="H11H10" to="B8A8"/>
    <trip id="16h358" depart="57669.00" from="F11F10" to="J1J0"/>
    <trip id="16h359" depart="57669.00" from="F11F10" to="K10K11"/>
    <trip id="16h360" depart="57669.00" from="dLK" to="B1B0"/>
    <trip id="16h361" depart="57669.00" from="H11H10" to="dKL"/>
    <trip id="16h362" depart="57670.00" from="G0G1" to="J1J0"/>
    <trip id="16h363" depart="57670.00" from="A1B1" to="K5L5"/>
    <trip id="16h364" depart="57670.00" from="L10K10" to="J1J0"/>
    <trip id="16h365" depart="57670.00" from="A3B3" to="H2G2"/>
    <trip id="16h366" depart="57670.00" from="L2K2" to="G10G11"/>
    <trip id="16h367" depart="57671.00" from="L2K2" to="G10G11"/>
    <trip id="16h368" depart="57671.00" from="A3B3" to="B6A6"/>
    <trip id="16h369" depart="57671.00" from="dAB" to="H1H0"/>
    <trip id="16h370" depart="57671.00" from="L2K2" to="B6A6"/>
    <trip id="16h371" depart="57671.00" from="L2K2" to="K9L9"/>
    <trip id="16h372" depart="57671.00" from="A5B5" to="E10E11"/>
    <trip id="16h373" depart="57672.00" from="dLK" to="G1H1"/>
    <trip id="16h374" depart="57672.00" from="dAB" to="H1H0"/>
    <trip id="16h375" depart="57672.00" from="J10I10" to="K7K8"/>
    <trip id="16h376" depart="57672.00" from="A3B3" to="K10K11"/>
    <trip id="16h377" depart="57673.00" from="J10J9" to="F1F0"/>
    <trip id="16h378" depart="57673.00" from="A3B3" to="K9L9"/>
    <trip id="16h379" depart="57673.00" from="dLK" to="C10C11"/>
    <trip id="16h380" depart="57673.00" from="J11J10" to="E10E11"/>
    <trip id="16h381" depart="57674.00" from="J11J10" to="K5L5"/>
    <trip id="16h382" depart="57674.00" from="A3B3" to="K3d"/>
    <trip id="16h383" depart="57674.00" from="E0E1" to="I10I11"/>
    <trip id="16h384" depart="57674.00" from="L2K2" to="I10I11"/>
    <trip id="16h385" depart="57674.00" from="E2E3" to="J7J6"/>
    <trip id="16h386" depart="57674.00" from="A5B5" to="K1L1"/>
    <trip id="16h387" depart="57674.00" from="E0E1" to="I10I11"/>
    <trip id="16h388" depart="57675.00" from="C0C1" to="F1F0"/>
    <trip id="16h389" depart="57675.00" from="dAB" to="G10G11"/>
    <trip id="16h390" depart="57675.00" from="L6K6" to="F8E8"/>
    <trip id="16h391" depart="57675.00" from="A5B5" to="K10K11"/>
    <trip id="16h392" depart="57675.00" from="D11D10" to="B1B0"/>
    <trip id="16h393" depart="57676.00" from="A5B5" to="B6A6"/>
    <trip id="16h394" depart="57676.00" from="L4K4" to="B10A10"/>
    <trip id="16h395" depart="57676.00" from="L4K4" to="H8H7"/>
    <trip id="16h396" depart="57677.00" from="D11D10" to="dKL"/>
    <trip id="16h397" depart="57677.00" from="L2K2" to="K7L7"/>
    <trip id="16h398" depart="57677.00" from="dLK" to="J1J0"/>
    <trip id="16h399" depart="57677.00" from="K0K1" to="D1D0"/>
    <trip id="16h400" depart="57677.00" from="dLK" to="F1F0"/>
    <trip id="16h401" depart="57678.00" from="A5B5" to="B4A4"/>
    <trip id="16h402" depart="57678.00" from="D11D10" to="K1L1"/>
    <trip id="16h403" depart="57678.00" from="dAB" to="K9L9"/>
    <trip id="16h404" depart="57678.00" from="J11J10" to="H7I7"/>
    <trip id="16h405" depart="57678.00" from="C7D7" to="H1H0"/>
    <trip id="16h406" depart="57678.00" from="A9B9" to="dBA"/>
    <trip id="16h407" depart="57678.00" from="K0K1" to="K1L1"/>
    <trip id="16h408" depart="57679.00" from="A3B3" to="J1J0"/>
    <trip id="16h409" depart="57679.00" from="J11J10" to="G3H3"/>
    <trip id="16h410" depart="57679.00" from="dIJ" to="G10G11"/>
    <trip id="16h411" depart="57680.00" from="A3B3" to="B1B0"/>
    <trip id="16h412" depart="57680.00" from="G0G1" to="B6A6"/>
    <trip id="16h413" depart="57680.00" from="L10K10" to="K1L1"/>
    <trip id="16h414" depart="57680.00" from="E0E1" to="I10I11"/>
    <trip id="16h415" depart="57680.00" from="G0G1" to="C10C11"/>
    <trip id="16h416" depart="57680.00" from="A5B5" to="C10C11"/>
    <trip id="16h417" depart="57681.00" from="J11J10" to="B8A8"/>
    <trip id="16h418" depart="57681.00" from="D11D10" to="I10I11"/>
    <trip id="16h419" depart="57681.00" from="L2K2" to="G4F4"/>
    <trip id="16h420" depart="57681.00" from="G4G5" to="D1D0"/>
    <trip id="16h421" depart="57681.00" from="dAB" to="H1H0"/>
    <trip id="16h422" depart="57681.00" from="D8C8" to="B1B0"/>
    <trip id="16h423" depart="57681.00" from="L8K8" to="K10K11"/>
    <trip id="16h424" depart="57681.00" from="H11H10" to="K7L7"/>
    <trip id="16h425" depart="57682.00" from="L8K8" to="K1L1"/>
    <trip id="16h426" depart="57682.00" from="E5F5" to="I10I11"/>
    <trip id="16h427" depart="57682.00" from="I0I1" to="B1B0"/>
    <trip id="16h428" depart="57682.00" from="L2K2" to="C10C11"/>
    <trip id="16h429" depart="57682.00" from="dLK" to="E10E11"/>
    <trip id="16h430" depart="57682.00" from="dAB" to="K3L3"/>
    <trip id="16h431" depart="57683.00" from="H11H10" to="G6F6"/>
    <trip id="16h432" depart="57683.00" from="A7B7" to="D1D0"/>
    <trip id="16h433" depart="57683.00" from="G0G1" to="J1J0"/>
    <trip id="16h434" depart="57683.00" from="D11D10" to="J1J0"/>
    <trip id="16h435" depart="57683.00" from="dLK" to="K3L3"/>
    <trip id="16h436" depart="57683.00" from="D11D10" to="K7L7"/>
    <trip id="16h437" depart="57683.00" from="L4K4" to="E10E11"/>
    <trip id="16h438" depart="57684.00" from="G0G1" to="dKL"/>
    <trip id="16h439" depart="57685.00" from="J11J10" to="J1J0"/>
    <trip id="16h440" depart="57685.00" from="K0K1" to="B10A10"/>
    <trip id="16h441" depart="57685.00" from="A1B1" to="D1D0"/>
    <trip id="16h442" depart="57685.00" from="K0K1" to="F1F0"/>
    <trip id="16h443" depart="57686.00" from="A7B7" to="B6A6"/>
    <trip id="16h444" depart="57686.00" from="K0K1" to="H1H0"/>
    <trip id="16h445" depart="57686.00" from="A9B9" to="dBA"/>
    <trip id="16h446" depart="57686.00" from="D9E9" to="K3L3"/>
    <trip id="16h447" depart="57686.00" from="B11B10" to="I10I11"/>
    <trip id="16h448" depart="57687.00" from="dLK" to="C1C2"/>
    <trip id="16h449" depart="57687.00" from="A9B9" to="K1L1"/>
    <trip id="16h450" depart="57687.00" from="D3D2" to="dBA"/>
    <trip id="16h451" depart="57687.00" from="A5B5" to="K10K11"/>
    <trip id="16h452" depart="57687.00" from="dLK" to="K5L5"/>
    <trip id="16h453" depart="57687.00" from="C0C1" to="K1L1"/>
    <trip id="16h454" depart="57687.00" from="F11F10" to="C10C11"/>
    <trip id="16h455" depart="57688.00" from="A9B9" to="H1H0"/>