<?xml version="1.0" encoding="UTF-8"?>
<!-- generated on 2020-12-09 02:55:01.119890 by randomTrips.py v1_7_0+0000-714814baed
  options: -n .\data/grid01-bcn_06.net.xml <doubleminus>prefix=2h <doubleminus>fringe-factor 100 -b 7200 -e 10800 -p4.41717791411043 <doubleminus>binomial 10 -odata/random/random_h_2-bcn_06.trips.rou.xml <doubleminus>edge-permission=passenger
-->
<routes xmlns:xsi="http://www.w3.org/2001/XMLSchema-instance" xsi:noNamespaceSchemaLocation="http://sumo.dlr.de/xsd/routes_file.xsd">
    <trip id="2h0" depart="7201.00" from="L10K10" to="J1J0"/>
    <trip id="2h1" depart="7209.00" from="K0K1" to="J1J0"/>
    <trip id="2h2" depart="7212.00" from="C0C1" to="B10A10"/>
    <trip id="2h3" depart="7226.00" from="L2K2" to="C10C11"/>
    <trip id="2h4" depart="7228.00" from="L10K10" to="I10I11"/>
    <trip id="2h5" depart="7228.00" from="A3B3" to="K5L5"/>
    <trip id="2h6" depart="7235.00" from="L6K6" to="G10G11"/>
    <trip id="2h7" depart="7238.00" from="C0C1" to="E10E11"/>
    <trip id="2h8" depart="7241.00" from="K0K1" to="K1L1"/>
    <trip id="2h9" depart="7246.00" from="D11D10" to="K10K11"/>
    <trip id="2h10" depart="7249.00" from="G0G1" to="K9L9"/>
    <trip id="2h11" depart="7250.00" from="A7B7" to="B2A2"/>
    <trip id="2h12" depart="7257.00" from="L6K6" to="B1B0"/>
    <trip id="2h13" depart="7261.00" from="G0G1" to="B8A8"/>
    <trip id="2h14" depart="7265.00" from="F11F10" to="H1H0"/>
    <trip id="2h15" depart="7285.00" from="L10K10" to="K5L5"/>
    <trip id="2h16" depart="7292.00" from="G0G1" to="F1F0"/>
    <trip id="2h17" depart="7297.00" from="L10K10" to="B8A8"/>
    <trip id="2h18" depart="7299.00" from="L2K2" to="B4A4"/>
    <trip id="2h19" depart="7299.00" from="L10K10" to="B8A8"/>
    <trip id="2h20" depart="7309.00" from="L4K4" to="H1H0"/>
    <trip id="2h21" depart="7312.00" from="C0C1" to="B6A6"/>
    <trip id="2h22" depart="7313.00" from="K0K1" to="B4A4"/>
    <trip id="2h23" depart="7313.00" from="L6K6" to="K5L5"/>
    <trip id="2h24" depart="7314.00" from="C0C1" to="K1L1"/>
    <trip id="2h25" depart="7334.00" from="A3B3" to="B8A8"/>
    <trip id="2h26" depart="7335.00" from="G0G1" to="B8A8"/>
    <trip id="2h27" depart="7337.00" from="L10K10" to="D1D0"/>
    <trip id="2h28" depart="7368.00" from="C0C1" to="B4A4"/>
    <trip id="2h29" depart="7374.00" from="G5G6" to="K7L7"/>
    <trip id="2h30" depart="7377.00" from="H11H10" to="B2A2"/>
    <trip id="2h31" depart="7381.00" from="I0I1" to="J1J0"/>
    <trip id="2h32" depart="7389.00" from="A1B1" to="C10C11"/>
    <trip id="2h33" depart="7391.00" from="A9B9" to="B2A2"/>
    <trip id="2h34" depart="7398.00" from="L6K6" to="K9L9"/>
    <trip id="2h35" depart="7404.00" from="G0G1" to="D1D0"/>
    <trip id="2h36" depart="7404.00" from="G6G7" to="B10A10"/>
    <trip id="2h37" depart="7405.00" from="L10K10" to="J1J0"/>
    <trip id="2h38" depart="7407.00" from="A7B7" to="F9G9"/>
    <trip id="2h39" depart="7414.00" from="C0C1" to="D1D0"/>
    <trip id="2h40" depart="7425.00" from="B11B10" to="G10G11"/>
    <trip id="2h41" depart="7434.00" from="A5B5" to="K3L3"/>
    <trip id="2h42" depart="7443.00" from="L10K10" to="K10K11"/>
    <trip id="2h43" depart="7445.00" from="L8K8" to="B6A6"/>
    <trip id="2h44" depart="7447.00" from="F11F10" to="B2A2"/>
    <trip id="2h45" depart="7447.00" from="J11J10" to="K3L3"/>
    <trip id="2h46" depart="7449.00" from="I0I1" to="E4D4"/>
    <trip id="2h47" depart="7454.00" from="A3B3" to="B8A8"/>
    <trip id="2h48" depart="7463.00" from="A9B9" to="H1H0"/>
    <trip id="2h49" depart="7465.00" from="E0E1" to="B6A6"/>
    <trip id="2h50" depart="7465.00" from="I2I3" to="K3L3"/>
    <trip id="2h51" depart="7472.00" from="L2K2" to="K9L9"/>
    <trip id="2h52" depart="7473.00" from="A3B3" to="K5L5"/>
    <trip id="2h53" depart="7481.00" from="L6K6" to="B6A6"/>
    <trip id="2h54" depart="7482.00" from="H11H10" to="K7L7"/>
    <trip id="2h55" depart="7488.00" from="D4D3" to="K10K11"/>
    <trip id="2h56" depart="7502.00" from="L2K2" to="C10C11"/>
    <trip id="2h57" depart="7509.00" from="L10K10" to="K1L1"/>
    <trip id="2h58" depart="7509.00" from="L6K6" to="I10I11"/>
    <trip id="2h59" depart="7509.00" from="B11B10" to="K1L1"/>
    <trip id="2h60" depart="7519.00" from="B11B10" to="K10K11"/>
    <trip id="2h61" depart="7520.00" from="C0C1" to="K3L3"/>
    <trip id="2h62" depart="7524.00" from="J11J10" to="E10E11"/>
    <trip id="2h63" depart="7528.00" from="J11J10" to="K7K8"/>
    <trip id="2h64" depart="7538.00" from="A3B3" to="H4H3"/>
    <trip id="2h65" depart="7552.00" from="B11B10" to="I10I11"/>
    <trip id="2h66" depart="7558.00" from="J11J10" to="F10E10"/>
    <trip id="2h67" depart="7560.00" from="A3B3" to="J1J0"/>
    <trip id="2h68" depart="7563.00" from="J11J10" to="G10G11"/>
    <trip id="2h69" depart="7566.00" from="H11H10" to="G10G11"/>
    <trip id="2h70" depart="7570.00" from="B11B10" to="B6A6"/>
    <trip id="2h71" depart="7572.00" from="G0G1" to="B10A10"/>
    <trip id="2h72" depart="7580.00" from="A1B1" to="H1H0"/>
    <trip id="2h73" depart="7582.00" from="K0K1" to="I7J7"/>
    <trip id="2h74" depart="7588.00" from="I0I1" to="J1J0"/>
    <trip id="2h75" depart="7592.00" from="A3B3" to="B4A4"/>
    <trip id="2h76" depart="7594.00" from="A7B7" to="K9L9"/>
    <trip id="2h77" depart="7599.00" from="L2K2" to="B8A8"/>
    <trip id="2h78" depart="7605.00" from="A9B9" to="H1H0"/>
    <trip id="2h79" depart="7610.00" from="A5B5" to="K5L5"/>
    <trip id="2h80" depart="7619.00" from="L10K10" to="K3L3"/>
    <trip id="2h81" depart="7619.00" from="L6K6" to="K7L7"/>
    <trip id="2h82" depart="7619.00" from="E0E1" to="C10C11"/>
    <trip id="2h83" depart="7619.00" from="D11D10" to="E10E11"/>
    <trip id="2h84" depart="7622.00" from="A3B3" to="G10G11"/>
    <trip id="2h85" depart="7628.00" from="A1B1" to="K1L1"/>
    <trip id="2h86" depart="7632.00" from="I0I1" to="D1D0"/>
    <trip id="2h87" depart="7632.00" from="L2K2" to="K1L1"/>
    <trip id="2h88" depart="7642.00" from="L2K2" to="J1J0"/>
    <trip id="2h89" depart="7646.00" from="L10K10" to="D1D0"/>
    <trip id="2h90" depart="7652.00" from="J11J10" to="B2A2"/>
    <trip id="2h91" depart="7653.00" from="H11H10" to="I9J9"/>
    <trip id="2h92" depart="7654.00" from="D7E7" to="B8A8"/>
    <trip id="2h93" depart="7655.00" from="L4K4" to="I10I11"/>
    <trip id="2h94" depart="7656.00" from="B11B10" to="G10G11"/>
    <trip id="2h95" depart="7664.00" from="B11B10" to="E10E11"/>
    <trip id="2h96" depart="7674.00" from="L4K4" to="B8A8"/>
    <trip id="2h97" depart="7681.00" from="A1B1" to="I10I11"/>
    <trip id="2h98" depart="7682.00" from="A9B9" to="B9C9"/>
    <trip id="2h99" depart="7682.00" from="J11J10" to="D1D0"/>
    <trip id="2h100" depart="7690.00" from="L6K6" to="J1J0"/>
    <trip id="2h101" depart="7692.00" from="I0I1" to="G10G11"/>
    <trip id="2h102" depart="7702.00" from="A7B7" to="B4A4"/>
    <trip id="2h103" depart="7703.00" from="L8K8" to="E10E11"/>
    <trip id="2h104" depart="7706.00" from="K0K1" to="F1F0"/>
    <trip id="2h105" depart="7714.00" from="A5B5" to="B4A4"/>
    <trip id="2h106" depart="7718.00" from="L6K6" to="F1F0"/>
    <trip id="2h107" depart="7721.00" from="A5B5" to="B2A2"/>
    <trip id="2h108" depart="7728.00" from="L8K8" to="K3L3"/>
    <trip id="2h109" depart="7738.00" from="F11F10" to="B10A10"/>
    <trip id="2h110" depart="7740.00" from="B11B10" to="B2A2"/>
    <trip id="2h111" depart="7749.00" from="L8K8" to="B10A10"/>
    <trip id="2h112" depart="7750.00" from="K0K1" to="K7L7"/>
    <trip id="2h113" depart="7765.00" from="K0K1" to="K9L9"/>
    <trip id="2h114" depart="7768.00" from="G0G1" to="F10E10"/>
    <trip id="2h115" depart="7773.00" from="B11B10" to="K9L9"/>
    <trip id="2h116" depart="7778.00" from="G0G1" to="D1D0"/>
    <trip id="2h117" depart="7786.00" from="A9B9" to="B6A6"/>
    <trip id="2h118" depart="7801.00" from="C0C1" to="F1F0"/>
    <trip id="2h119" depart="7806.00" from="J11J10" to="K5L5"/>
    <trip id="2h120" depart="7811.00" from="L2K2" to="B1B0"/>
    <trip id="2h121" depart="7816.00" from="L8K8" to="H6G6"/>
    <trip id="2h122" depart="7828.00" from="A5B5" to="C10C11"/>
    <trip id="2h123" depart="7838.00" from="L8K8" to="I1J1"/>
    <trip id="2h124" depart="7848.00" from="A5B5" to="B4A4"/>
    <trip id="2h125" depart="7850.00" from="A5B5" to="B10A10"/>
    <trip id="2h126" depart="7851.00" from="A7B7" to="B4A4"/>
    <trip id="2h127" depart="7852.00" from="I0I1" to="J4I4"/>
    <trip id="2h128" depart="7855.00" from="C0C1" to="B6A6"/>
    <trip id="2h129" depart="7858.00" from="L4K4" to="D1D0"/>
    <trip id="2h130" depart="7865.00" from="L10K10" to="K7L7"/>
    <trip id="2h131" depart="7867.00" from="B7B6" to="G10G11"/>
    <trip id="2h132" depart="7884.00" from="L10K10" to="B8A8"/>
    <trip id="2h133" depart="7890.00" from="F11F10" to="K3L3"/>
    <trip id="2h134" depart="7891.00" from="L6K6" to="F1F0"/>
    <trip id="2h135" depart="7894.00" from="J11J10" to="I10I11"/>
    <trip id="2h136" depart="7894.00" from="F11F10" to="K5L5"/>
    <trip id="2h137" depart="7896.00" from="F11F10" to="K7L7"/>
    <trip id="2h138" depart="7896.00" from="B9B8" to="K7L7"/>
    <trip id="2h139" depart="7902.00" from="A9B9" to="B1B0"/>
    <trip id="2h140" depart="7907.00" from="D2C2" to="K1L1"/>
    <trip id="2h141" depart="7910.00" from="H11H10" to="J1J0"/>
    <trip id="2h142" depart="7913.00" from="A9B9" to="B6A6"/>
    <trip id="2h143" depart="7916.00" from="L2K2" to="K7L7"/>
    <trip id="2h144" depart="7916.00" from="J11J10" to="D1D0"/>
    <trip id="2h145" depart="7926.00" from="C0C1" to="K3L3"/>
    <trip id="2h146" depart="7929.00" from="L10K10" to="K3L3"/>
    <trip id="2h147" depart="7936.00" from="A7B7" to="B1B0"/>
    <trip id="2h148" depart="7941.00" from="A5B5" to="K7L7"/>
    <trip id="2h149" depart="7942.00" from="A5B5" to="C10C11"/>
    <trip id="2h150" depart="7944.00" from="L10K10" to="K1L1"/>
    <trip id="2h151" depart="7955.00" from="L4K4" to="B1B0"/>
    <trip id="2h152" depart="7958.00" from="D11D10" to="K3L3"/>
    <trip id="2h153" depart="7960.00" from="G0G1" to="K10K11"/>
    <trip id="2h154" depart="7964.00" from="L10K10" to="I10I11"/>
    <trip id="2h155" depart="7967.00" from="A3B3" to="J1J0"/>
    <trip id="2h156" depart="7970.00" from="H11H10" to="K9L9"/>
    <trip id="2h157" depart="7970.00" from="H3H2" to="K9L9"/>
    <trip id="2h158" depart="7974.00" from="D11D10" to="B10A10"/>
    <trip id="2h159" depart="7982.00" from="A3B3" to="G10G11"/>
    <trip id="2h160" depart="7989.00" from="K0K1" to="H1H0"/>
    <trip id="2h161" depart="7995.00" from="H11H10" to="G10G11"/>
    <trip id="2h162" depart="7998.00" from="C0C1" to="K7L7"/>
    <trip id="2h163" depart="8004.00" from="D11D10" to="K9L9"/>
    <trip id="2h164" depart="8007.00" from="G0G1" to="B4A4"/>
    <trip id="2h165" depart="8016.00" from="L4K4" to="B4B3"/>
    <trip id="2h166" depart="8021.00" from="A7B7" to="G10F10"/>
    <trip id="2h167" depart="8027.00" from="G6G7" to="K5L5"/>
    <trip id="2h168" depart="8032.00" from="H11H10" to="J1J0"/>
    <trip id="2h169" depart="8036.00" from="D11D10" to="H5I5"/>
    <trip id="2h170" depart="8041.00" from="A7B7" to="B4A4"/>
    <trip id="2h171" depart="8042.00" from="L2K2" to="K10K11"/>
    <trip id="2h172" depart="8043.00" from="L8K8" to="K9L9"/>
    <trip id="2h173" depart="8049.00" from="L6K6" to="B4A4"/>
    <trip id="2h174" depart="8052.00" from="L8K8" to="B10A10"/>
    <trip id="2h175" depart="8058.00" from="L2K2" to="J1J0"/>
    <trip id="2h176" depart="8063.00" from="D11D10" to="C10C11"/>
    <trip id="2h177" depart="8072.00" from="L2K2" to="C10C11"/>
    <trip id="2h178" depart="8078.00" from="L10K10" to="H1H0"/>
    <trip id="2h179" depart="8080.00" from="F11F10" to="K3L3"/>
    <trip id="2h180" depart="8082.00" from="L10K10" to="B10A10"/>
    <trip id="2h181" depart="8087.00" from="D11D10" to="B6A6"/>
    <trip id="2h182" depart="8088.00" from="A7B7" to="D1D0"/>
    <trip id="2h183" depart="8095.00" from="A3B3" to="K9L9"/>
    <trip id="2h184" depart="8096.00" from="A7B7" to="H1H0"/>
    <trip id="2h185" depart="8104.00" from="C1D1" to="F1F0"/>
    <trip id="2h186" depart="8110.00" from="A5B5" to="C10C11"/>
    <trip id="2h187" depart="8115.00" from="A9B9" to="K3L3"/>
    <trip id="2h188" depart="8123.00" from="F11F10" to="C7D7"/>
    <trip id="2h189" depart="8126.00" from="D11D10" to="J1J0"/>
    <trip id="2h190" depart="8127.00" from="L8K8" to="K3L3"/>
    <trip id="2h191" depart="8132.00" from="A1B1" to="C10C11"/>
    <trip id="2h192" depart="8132.00" from="B11B10" to="D1D0"/>
    <trip id="2h193" depart="8139.00" from="L10K10" to="K5L5"/>
    <trip id="2h194" depart="8141.00" from="F11F10" to="J1J0"/>
    <trip id="2h195" depart="8141.00" from="H4G4" to="B2A2"/>
    <trip id="2h196" depart="8145.00" from="C0C1" to="I10I11"/>
    <trip id="2h197" depart="8162.00" from="A3B3" to="K1L1"/>
    <trip id="2h198" depart="8165.00" from="K0K1" to="K3L3"/>
    <trip id="2h199" depart="8175.00" from="L10K10" to="K7L7"/>
    <trip id="2h200" depart="8190.00" from="A5B5" to="B8A8"/>
    <trip id="2h201" depart="8198.00" from="L2K2" to="B10A10"/>
    <trip id="2h202" depart="8202.00" from="A5B5" to="D1D0"/>
    <trip id="2h203" depart="8204.00" from="A3B3" to="H1H0"/>
    <trip id="2h204" depart="8210.00" from="K0K1" to="K1L1"/>
    <trip id="2h205" depart="8212.00" from="L6K6" to="B2A2"/>
    <trip id="2h206" depart="8214.00" from="L2K2" to="H5H4"/>
    <trip id="2h207" depart="8216.00" from="F6F5" to="E10E11"/>
    <trip id="2h208" depart="8220.00" from="J11J10" to="K10K11"/>
    <trip id="2h209" depart="8225.00" from="E0E1" to="B4A4"/>
    <trip id="2h210" depart="8234.00" from="E6D6" to="G10G11"/>
    <trip id="2h211" depart="8234.00" from="C0C1" to="B2A2"/>
    <trip id="2h212" depart="8238.00" from="L2K2" to="K3L3"/>
    <trip id="2h213" depart="8241.00" from="B11B10" to="D1D0"/>
    <trip id="2h214" depart="8248.00" from="E0E1" to="C8B8"/>
    <trip id="2h215" depart="8249.00" from="L10K10" to="F1F0"/>
    <trip id="2h216" depart="8253.00" from="A7B7" to="K5L5"/>
    <trip id="2h217" depart="8259.00" from="C0C1" to="H1H0"/>
    <trip id="2h218" depart="8264.00" from="C0C1" to="I10I11"/>
    <trip id="2h219" depart="8267.00" from="L6K6" to="B8A8"/>
    <trip id="2h220" depart="8269.00" from="E0E1" to="B2A2"/>
    <trip id="2h221" depart="8270.00" from="C0C1" to="B1B0"/>
    <trip id="2h222" depart="8271.00" from="D11D10" to="D1D0"/>
    <trip id="2h223" depart="8283.00" from="A1B1" to="J1J0"/>
    <trip id="2h224" depart="8292.00" from="L6K6" to="D1D0"/>
    <trip id="2h225" depart="8299.00" from="K0K1" to="H1H0"/>
    <trip id="2h226" depart="8306.00" from="J11J10" to="B6A6"/>
    <trip id="2h227" depart="8311.00" from="L10K10" to="B1B0"/>
    <trip id="2h228" depart="8313.00" from="E1E2" to="B10A10"/>
    <trip id="2h229" depart="8317.00" from="H11H10" to="B10A10"/>
    <trip id="2h230" depart="8317.00" from="A9B9" to="E10E11"/>
    <trip id="2h231" depart="8323.00" from="L10K10" to="E10E11"/>
    <trip id="2h232" depart="8329.00" from="L4K4" to="B1B0"/>
    <trip id="2h233" depart="8339.00" from="K0K1" to="D1D0"/>
    <trip id="2h234" depart="8342.00" from="B11B10" to="H1H0"/>
    <trip id="2h235" depart="8345.00" from="A5B5" to="C10C11"/>
    <trip id="2h236" depart="8363.00" from="B11B10" to="B10A10"/>
    <trip id="2h237" depart="8370.00" from="I0I1" to="J3J2"/>
    <trip id="2h238" depart="8374.00" from="H6H5" to="K9L9"/>
    <trip id="2h239" depart="8375.00" from="D3D2" to="B10A10"/>
    <trip id="2h240" depart="8386.00" from="L6K6" to="B6A6"/>
    <trip id="2h241" depart="8386.00" from="B11B10" to="K3L3"/>
    <trip id="2h242" depart="8401.00" from="L10K10" to="B4A4"/>
    <trip id="2h243" depart="8408.00" from="L2K2" to="B1B0"/>
    <trip id="2h244" depart="8411.00" from="J11J10" to="K3L3"/>
    <trip id="2h245" depart="8414.00" from="L4K4" to="E10E11"/>
    <trip id="2h246" depart="8416.00" from="D11D10" to="K5L5"/>
    <trip id="2h247" depart="8419.00" from="A1B1" to="K1L1"/>
    <trip id="2h248" depart="8421.00" from="L10K10" to="B6B5"/>
    <trip id="2h249" depart="8423.00" from="A7B7" to="B6A6"/>
    <trip id="2h250" depart="8426.00" from="K0K1" to="B1B0"/>
    <trip id="2h251" depart="8430.00" from="L10K10" to="I7J7"/>
    <trip id="2h252" depart="8430.00" from="E0E1" to="C10C11"/>
    <trip id="2h253" depart="8432.00" from="C0C1" to="B4A4"/>
    <trip id="2h254" depart="8436.00" from="G0G1" to="B2A2"/>
    <trip id="2h255" depart="8440.00" from="B11B10" to="B4A4"/>
    <trip id="2h256" depart="8448.00" from="K2J2" to="F1G1"/>
    <trip id="2h257" depart="8449.00" from="J11J10" to="H1H0"/>
    <trip id="2h258" depart="8455.00" from="A1B1" to="B1B0"/>
    <trip id="2h259" depart="8455.00" from="B11B10" to="B10A10"/>
    <trip id="2h260" depart="8458.00" from="H11H10" to="B1B0"/>
    <trip id="2h261" depart="8459.00" from="L4K4" to="I2H2"/>
    <trip id="2h262" depart="8469.00" from="L10K10" to="G10G11"/>
    <trip id="2h263" depart="8475.00" from="A5B5" to="K5L5"/>
    <trip id="2h264" depart="8477.00" from="L10K10" to="K1L1"/>
    <trip id="2h265" depart="8479.00" from="G0G1" to="J1J0"/>
    <trip id="2h266" depart="8483.00" from="A3B3" to="K1L1"/>
    <trip id="2h267" depart="8483.00" from="L4K4" to="B2A2"/>
    <trip id="2h268" depart="8496.00" from="A9B9" to="K7L7"/>
    <trip id="2h269" depart="8499.00" from="D11D10" to="I10I11"/>
    <trip id="2h270" depart="8513.00" from="L2K2" to="K1L1"/>
    <trip id="2h271" depart="8513.00" from="G0G1" to="B1B0"/>
    <trip id="2h272" depart="8514.00" from="F11F10" to="K1L1"/>
    <trip id="2h273" depart="8517.00" from="E0E1" to="I10I11"/>
    <trip id="2h274" depart="8518.00" from="A9B9" to="E3E4"/>
    <trip id="2h275" depart="8526.00" from="A3B3" to="K4K5"/>
    <trip id="2h276" depart="8534.00" from="G0G1" to="F1G1"/>
    <trip id="2h277" depart="8534.00" from="A7B7" to="B2A2"/>
    <trip id="2h278" depart="8544.00" from="L10K10" to="K9L9"/>
    <trip id="2h279" depart="8545.00" from="F11F10" to="K3L3"/>
    <trip id="2h280" depart="8553.00" from="A5B5" to="K10K11"/>
    <trip id="2h281" depart="8555.00" from="B11B10" to="K1L1"/>
    <trip id="2h282" depart="8560.00" from="D11D10" to="K9L9"/>
    <trip id="2h283" depart="8570.00" from="A9B9" to="J1J0"/>
    <trip id="2h284" depart="8570.00" from="G0G1" to="B8A8"/>
    <trip id="2h285" depart="8574.00" from="A5B5" to="B6A6"/>
    <trip id="2h286" depart="8582.00" from="L8K8" to="C10C11"/>
    <trip id="2h287" depart="8582.00" from="A9B9" to="B2A2"/>
    <trip id="2h288" depart="8589.00" from="J11J10" to="K7L7"/>
    <trip id="2h289" depart="8601.00" from="A1B1" to="J1J0"/>
    <trip id="2h290" depart="8605.00" from="B11B10" to="B8A8"/>
    <trip id="2h291" depart="8608.00" from="I0I1" to="I10I11"/>
    <trip id="2h292" depart="8609.00" from="I0I1" to="B8A8"/>
    <trip id="2h293" depart="8622.00" from="A9B9" to="K3L3"/>
    <trip id="2h294" depart="8624.00" from="I0I1" to="B6A6"/>
    <trip id="2h295" depart="8628.00" from="A1B1" to="B6A6"/>
    <trip id="2h296" depart="8634.00" from="L2K2" to="G10G11"/>
    <trip id="2h297" depart="8641.00" from="L2K2" to="C10C11"/>
    <trip id="2h298" depart="8641.00" from="D11D10" to="E10E11"/>
    <trip id="2h299" depart="8646.00" from="J11J10" to="G10G11"/>
    <trip id="2h300" depart="8649.00" from="F4F3" to="E7E8"/>
    <trip id="2h301" depart="8663.00" from="G0G1" to="B1B0"/>
    <trip id="2h302" depart="8664.00" from="C8C9" to="K9L9"/>
    <trip id="2h303" depart="8666.00" from="A7B7" to="K5L5"/>
    <trip id="2h304" depart="8672.00" from="I0I1" to="J1J0"/>
    <trip id="2h305" depart="8679.00" from="C0C1" to="F1F0"/>
    <trip id="2h306" depart="8691.00" from="D11D10" to="B10A10"/>
    <trip id="2h307" depart="8693.00" from="D11D10" to="G10G11"/>
    <trip id="2h308" depart="8695.00" from="C0C1" to="B1C1"/>
    <trip id="2h309" depart="8695.00" from="A3B3" to="B8A8"/>
    <trip id="2h310" depart="8713.00" from="E0E1" to="F1F0"/>
    <trip id="2h311" depart="8718.00" from="J11J10" to="K9L9"/>
    <trip id="2h312" depart="8720.00" from="A5B5" to="K9L9"/>
    <trip id="2h313" depart="8723.00" from="A9B9" to="B2A2"/>
    <trip id="2h314" depart="8732.00" from="A9B9" to="J1J0"/>
    <trip id="2h315" depart="8735.00" from="I10H10" to="H1H0"/>
    <trip id="2h316" depart="8736.00" from="B11B10" to="K9L9"/>
    <trip id="2h317" depart="8740.00" from="J2J1" to="K7L7"/>
    <trip id="2h318" depart="8746.00" from="A7B7" to="K2K3"/>
    <trip id="2h319" depart="8753.00" from="H11H10" to="B2A2"/>
    <trip id="2h320" depart="8758.00" from="A7B7" to="K7K8"/>
    <trip id="2h321" depart="8769.00" from="L10K10" to="C10C11"/>
    <trip id="2h322" depart="8775.00" from="F11F10" to="G10G11"/>
    <trip id="2h323" depart="8776.00" from="L10K10" to="F10F9"/>
    <trip id="2h324" depart="8786.00" from="L2K2" to="K5L5"/>
    <trip id="2h325" depart="8788.00" from="J11J10" to="K10K11"/>
    <trip id="2h326" depart="8795.00" from="B11B10" to="K5L5"/>
    <trip id="2h327" depart="8795.00" from="J11J10" to="D4D3"/>
    <trip id="2h328" depart="8796.00" from="A3B3" to="C10C11"/>
    <trip id="2h329" depart="8799.00" from="L2K2" to="E10E11"/>
    <trip id="2h330" depart="8799.00" from="J11J10" to="E10E11"/>
    <trip id="2h331" depart="8800.00" from="I0I1" to="K7L7"/>
    <trip id="2h332" depart="8802.00" from="L10K10" to="K10K11"/>
    <trip id="2h333" depart="8806.00" from="L8K8" to="G8G9"/>
    <trip id="2h334" depart="8806.00" from="L6K6" to="K5L5"/>
    <trip id="2h335" depart="8811.00" from="K0K1" to="B1B0"/>
    <trip id="2h336" depart="8813.00" from="A3B3" to="G10G11"/>
    <trip id="2h337" depart="8817.00" from="L8K8" to="B8A8"/>
    <trip id="2h338" depart="8828.00" from="C1D1" to="C10C11"/>
    <trip id="2h339" depart="8829.00" from="A3B3" to="B2A2"/>
    <trip id="2h340" depart="8833.00" from="E0E1" to="K9L9"/>
    <trip id="2h341" depart="8834.00" from="J11J10" to="H1H0"/>
    <trip id="2h342" depart="8834.00" from="D11D10" to="K7L7"/>
    <trip id="2h343" depart="8839.00" from="F11F10" to="D1D0"/>
    <trip id="2h344" depart="8842.00" from="K10J10" to="G10G11"/>
    <trip id="2h345" depart="8847.00" from="E9E10" to="B1B0"/>
    <trip id="2h346" depart="8855.00" from="A5B5" to="I10I11"/>
    <trip id="2h347" depart="8855.00" from="A1B1" to="B6A6"/>
    <trip id="2h348" depart="8864.00" from="I0I1" to="D1D0"/>
    <trip id="2h349" depart="8878.00" from="G0G1" to="J1J0"/>
    <trip id="2h350" depart="8889.00" from="D11D10" to="F1F0"/>
    <trip id="2h351" depart="8899.00" from="I5J5" to="B6A6"/>
    <trip id="2h352" depart="8902.00" from="L6K6" to="B1B0"/>
    <trip id="2h353" depart="8903.00" from="A5B5" to="B8A8"/>
    <trip id="2h354" depart="8903.00" from="I0I1" to="I10I11"/>
    <trip id="2h355" depart="8909.00" from="E0E1" to="H1H0"/>
    <trip id="2h356" depart="8920.00" from="L4K4" to="H1H0"/>
    <trip id="2h357" depart="8927.00" from="B11B10" to="F1F0"/>
    <trip id="2h358" depart="8933.00" from="L2K2" to="B4A4"/>
    <trip id="2h359" depart="8936.00" from="F11F10" to="B4A4"/>
    <trip id="2h360" depart="8945.00" from="L2K2" to="B4A4"/>
    <trip id="2h361" depart="8947.00" from="G0G1" to="B6A6"/>
    <trip id="2h362" depart="8947.00" from="G0G1" to="G10G11"/>
    <trip id="2h363" depart="8948.00" from="A7B7" to="K5L5"/>
    <trip id="2h364" depart="8957.00" from="K0K1" to="B2A2"/>
    <trip id="2h365" depart="8957.00" from="L10K10" to="B4A4"/>
    <trip id="2h366" depart="8963.00" from="J11J10" to="B4A4"/>
    <trip id="2h367" depart="8963.00" from="A1B1" to="K7L7"/>
    <trip id="2h368" depart="8964.00" from="I0I1" to="C10C11"/>
    <trip id="2h369" depart="8970.00" from="L6K6" to="F1F0"/>
    <trip id="2h370" depart="8971.00" from="L4K4" to="G10G11"/>
    <trip id="2h371" depart="8975.00" from="E8E9" to="C10C11"/>
    <trip id="2h372" depart="8976.00" from="B11B10" to="F1F0"/>
    <trip id="2h373" depart="8982.00" from="L4K4" to="H1H0"/>
    <trip id="2h374" depart="8985.00" from="L8K8" to="D1D0"/>
    <trip id="2h375" depart="8986.00" from="A5B5" to="F1F0"/>
    <trip id="2h376" depart="8992.00" from="L2K2" to="K9L9"/>
    <trip id="2h377" depart="9001.00" from="L2K2" to="E10E11"/>
    <trip id="2h378" depart="9011.00" from="C1C2" to="H1H0"/>
    <trip id="2h379" depart="9017.00" from="K0K1" to="B2A2"/>
    <trip id="2h380" depart="9017.00" from="L8K8" to="G10G11"/>
    <trip id="2h381" depart="9024.00" from="L6K6" to="C10C11"/>
    <trip id="2h382" depart="9027.00" from="A7B7" to="E10E11"/>
    <trip id="2h383" depart="9029.00" from="A7B7" to="G10G11"/>
    <trip id="2h384" depart="9031.00" from="L8K8" to="K1L1"/>
    <trip id="2h385" depart="9036.00" from="K0K1" to="B1B0"/>
    <trip id="2h386" depart="9043.00" from="F11F10" to="H5H4"/>
    <trip id="2h387" depart="9046.00" from="B11B10" to="B8A8"/>
    <trip id="2h388" depart="9047.00" from="D11D10" to="B6A6"/>
    <trip id="2h389" depart="9057.00" from="A3B3" to="B4A4"/>
    <trip id="2h390" depart="9058.00" from="L4K4" to="B10A10"/>
    <trip id="2h391" depart="9058.00" from="G0G1" to="B8A8"/>
    <trip id="2h392" depart="9059.00" from="G0G1" to="H1H0"/>
    <trip id="2h393" depart="9065.00" from="D11D10" to="C10C11"/>
    <trip id="2h394" depart="9070.00" from="C0C1" to="B4A4"/>
    <trip id="2h395" depart="9071.00" from="J11J10" to="K5L5"/>
    <trip id="2h396" depart="9076.00" from="F9F8" to="K10K11"/>
    <trip id="2h397" depart="9084.00" from="J11J10" to="B7B6"/>
    <trip id="2h398" depart="9086.00" from="L2K2" to="K3L3"/>
    <trip id="2h399" depart="9087.00" from="L6K6" to="F6E6"/>
    <trip id="2h400" depart="9092.00" from="A5B5" to="B6A6"/>
    <trip id="2h401" depart="9093.00" from="L6K6" to="H1H0"/>
    <trip id="2h402" depart="9093.00" from="A5B5" to="F1F0"/>
    <trip id="2h403" depart="9096.00" from="L10K10" to="G1H1"/>
    <trip id="2h404" depart="9096.00" from="I0I1" to="J1J0"/>
    <trip id="2h405" depart="9098.00" from="L10K10" to="J1J0"/>
    <trip id="2h406" depart="9100.00" from="L6K6" to="B6A6"/>
    <trip id="2h407" depart="9102.00" from="L6K6" to="K10K11"/>
    <trip id="2h408" depart="9110.00" from="A9B9" to="E6E7"/>
    <trip id="2h409" depart="9112.00" from="I0I1" to="D1D0"/>
    <trip id="2h410" depart="9117.00" from="A9B9" to="I1J1"/>
    <trip id="2h411" depart="9126.00" from="A9B9" to="H1H0"/>
    <trip id="2h412" depart="9131.00" from="K0K1" to="K9L9"/>
    <trip id="2h413" depart="9131.00" from="A1B1" to="B10A10"/>
    <trip id="2h414" depart="9133.00" from="A7B7" to="D1D0"/>
    <trip id="2h415" depart="9136.00" from="G0G1" to="D1D0"/>
    <trip id="2h416" depart="9150.00" from="G0G1" to="E10E11"/>
    <trip id="2h417" depart="9155.00" from="B11B10" to="B1B0"/>
    <trip id="2h418" depart="9157.00" from="A3B3" to="K9L9"/>
    <trip id="2h419" depart="9158.00" from="H11H10" to="B6A6"/>
    <trip id="2h420" depart="9160.00" from="L6K6" to="I10I11"/>
    <trip id="2h421" depart="9167.00" from="D11D10" to="G10G11"/>
    <trip id="2h422" depart="9168.00" from="L10K10" to="H1H0"/>
    <trip id="2h423" depart="9172.00" from="G0G1" to="C8B8"/>
    <trip id="2h424" depart="9174.00" from="E0E1" to="J1J0"/>
    <trip id="2h425" depart="9178.00" from="J11J10" to="C10C11"/>
    <trip id="2h426" depart="9180.00" from="A9B9" to="K1L1"/>
    <trip id="2h427" depart="9184.00" from="C0C1" to="K1L1"/>
    <trip id="2h428" depart="9185.00" from="B11B10" to="H7I7"/>
    <trip id="2h429" depart="9186.00" from="I0I1" to="K9K10"/>
    <trip id="2h430" depart="9188.00" from="L6K6" to="K1L1"/>
    <trip id="2h431" depart="9191.00" from="A7B7" to="G10G11"/>
    <trip id="2h432" depart="9193.00" from="A1B1" to="B2A2"/>
    <trip id="2h433" depart="9193.00" from="I0I1" to="F1F0"/>
    <trip id="2h434" depart="9194.00" from="A7B7" to="K10K11"/>
    <trip id="2h435" depart="9195.00" from="A3B3" to="K7L7"/>
    <trip id="2h436" depart="9197.00" from="L6K6" to="C10C11"/>
    <trip id="2h437" depart="9202.00" from="E0E1" to="B1B0"/>
    <trip id="2h438" depart="9214.00" from="B11B10" to="K7L7"/>
    <trip id="2h439" depart="9215.00" from="F5G5" to="F5F4"/>
    <trip id="2h440" depart="9218.00" from="B11B10" to="E10E11"/>
    <trip id="2h441" depart="9221.00" from="D11D10" to="K10K11"/>
    <trip id="2h442" depart="9223.00" from="B11B10" to="K3L3"/>
    <trip id="2h443" depart="9223.00" from="C0C1" to="K5L5"/>
    <trip id="2h444" depart="9223.00" from="K0K1" to="H4H3"/>
    <trip id="2h445" depart="9225.00" from="E9E10" to="G10G11"/>
    <trip id="2h446" depart="9232.00" from="F11F10" to="B8A8"/>
    <trip id="2h447" depart="9237.00" from="A1B1" to="K10K11"/>
    <trip id="2h448" depart="9237.00" from="G0G1" to="B2A2"/>
    <trip id="2h449" depart="9242.00" from="H11H10" to="K10J10"/>
    <trip id="2h450" depart="9243.00" from="L8K8" to="E10E11"/>
    <trip id="2h451" depart="9244.00" from="A9B9" to="K1L1"/>
    <trip id="2h452" depart="9245.00" from="E5E6" to="J1J0"/>
    <trip id="2h453" depart="9250.00" from="J11J10" to="B1B0"/>
    <trip id="2h454" depart="9251.00" from="I0I1" to="H1H0"/>
    <trip id="2h455" depart="9256.00" from="J11J10" to="C4C5"/>
    <trip id="2h456" depart="9258.00" from="L2K2" to="K1L1"/>
    <trip id="2h457" depart="9260.00" from="H11H10" to="B1B0"/>
    <trip id="2h458" depart="9269.00" from="J11J10" to="B4A4"/>
    <trip id="2h459" depart="9274.00" from="I0I1" to="K7L7"/>
    <trip id="2h460" depart="9277.00" from="A3B3" to="G10G11"/>
    <trip id="2h461" depart="9280.00" from="L10K10" to="K3L3"/>
    <trip id="2h462" depart="9282.00" from="K8K9" to="I10I11"/>
    <trip id="2h463" depart="9284.00" from="C0C1" to="B10A10"/>
    <trip id="2h464" depart="9285.00" from="D10D9" to="K3L3"/>
    <trip id="2h465" depart="9287.00" from="A9B9" to="C10C11"/>
    <trip id="2h466" depart="9289.00" from="G0G1" to="K10K11"/>
    <trip id="2h467" depart="9324.00" from="L8K8" to="K10K11"/>