<?xml version="1.0" encoding="UTF-8"?>
<!-- generated on 2020-12-09 02:55:08.667574 by randomTrips.py v1_7_0+0000-714814baed
  options: -n .\data/grid01-bcn_06.net.xml <doubleminus>prefix=12h <doubleminus>fringe-factor 100 -b 43200 -e 46800 -p0.2633311389071758 <doubleminus>binomial 10 -odata/random/random_h_12-bcn_06.trips.rou.xml <doubleminus>edge-permission=passenger
-->
<routes xmlns:xsi="http://www.w3.org/2001/XMLSchema-instance" xsi:noNamespaceSchemaLocation="http://sumo.dlr.de/xsd/routes_file.xsd">
    <trip id="12h0" depart="43200.00" from="B11B10" to="B6A6"/>
    <trip id="12h1" depart="43200.00" from="E0E1" to="B10A10"/>
    <trip id="12h2" depart="43200.00" from="G0G1" to="B10A10"/>
    <trip id="12h3" depart="43200.00" from="I0I1" to="G10G11"/>
    <trip id="12h4" depart="43200.00" from="H11H10" to="K1L1"/>
    <trip id="12h5" depart="43200.00" from="L10K10" to="J1J0"/>
    <trip id="12h6" depart="43201.00" from="A7B7" to="K9L9"/>
    <trip id="12h7" depart="43201.00" from="A5B5" to="B2A2"/>
    <trip id="12h8" depart="43201.00" from="G7G8" to="K3L3"/>
    <trip id="12h9" depart="43202.00" from="A9B9" to="C10C11"/>
    <trip id="12h10" depart="43202.00" from="B11B10" to="B2A2"/>
    <trip id="12h11" depart="43202.00" from="I0I1" to="D1D0"/>
    <trip id="12h12" depart="43202.00" from="A9B9" to="B8A8"/>
    <trip id="12h13" depart="43203.00" from="K0K1" to="B4A4"/>
    <trip id="12h14" depart="43203.00" from="L8K8" to="I10I11"/>
    <trip id="12h15" depart="43203.00" from="A1B1" to="C10C11"/>
    <trip id="12h16" depart="43203.00" from="A9B9" to="K7L7"/>
    <trip id="12h17" depart="43203.00" from="I10H10" to="E10E11"/>
    <trip id="12h18" depart="43204.00" from="B11B10" to="H1H0"/>
    <trip id="12h19" depart="43204.00" from="H11H10" to="K5L5"/>
    <trip id="12h20" depart="43204.00" from="L8K8" to="G10G11"/>
    <trip id="12h21" depart="43204.00" from="A3B3" to="B2A2"/>
    <trip id="12h22" depart="43205.00" from="D11D10" to="K9L9"/>
    <trip id="12h23" depart="43205.00" from="K0K1" to="J1J0"/>
    <trip id="12h24" depart="43205.00" from="I0I1" to="B2A2"/>
    <trip id="12h25" depart="43206.00" from="G0G1" to="B4A4"/>
    <trip id="12h26" depart="43206.00" from="I0I1" to="H9I9"/>
    <trip id="12h27" depart="43206.00" from="K0K1" to="G10G11"/>
    <trip id="12h28" depart="43206.00" from="C0C1" to="B10A10"/>
    <trip id="12h29" depart="43207.00" from="A3B3" to="K5L5"/>
    <trip id="12h30" depart="43207.00" from="F11F10" to="B1B0"/>
    <trip id="12h31" depart="43207.00" from="F11F10" to="G4G5"/>
    <trip id="12h32" depart="43207.00" from="L4K4" to="E10E11"/>
    <trip id="12h33" depart="43207.00" from="G0G1" to="K10K11"/>
    <trip id="12h34" depart="43208.00" from="C0C1" to="K9L9"/>
    <trip id="12h35" depart="43208.00" from="A9B9" to="D1D0"/>
    <trip id="12h36" depart="43208.00" from="A9B9" to="B1B0"/>
    <trip id="12h37" depart="43208.00" from="L4K4" to="K5L5"/>
    <trip id="12h38" depart="43208.00" from="B11B10" to="J1J0"/>
    <trip id="12h39" depart="43209.00" from="A5B5" to="K7L7"/>
    <trip id="12h40" depart="43209.00" from="A5B5" to="E10E11"/>
    <trip id="12h41" depart="43210.00" from="E0E1" to="D1D0"/>
    <trip id="12h42" depart="43210.00" from="A9B9" to="F1F0"/>
    <trip id="12h43" depart="43210.00" from="B11B10" to="K7L7"/>
    <trip id="12h44" depart="43210.00" from="L8K8" to="K3L3"/>
    <trip id="12h45" depart="43211.00" from="F11F10" to="B6A6"/>
    <trip id="12h46" depart="43211.00" from="D11D10" to="K9L9"/>
    <trip id="12h47" depart="43211.00" from="L10K10" to="F1F0"/>
    <trip id="12h48" depart="43212.00" from="C0C1" to="K9L9"/>
    <trip id="12h49" depart="43212.00" from="H11H10" to="G10G11"/>
    <trip id="12h50" depart="43212.00" from="L8K8" to="B1B0"/>
    <trip id="12h51" depart="43212.00" from="H11H10" to="J1J0"/>
    <trip id="12h52" depart="43213.00" from="A5B5" to="K5L5"/>
    <trip id="12h53" depart="43213.00" from="H11H10" to="I10I11"/>
    <trip id="12h54" depart="43213.00" from="J7K7" to="B8A8"/>
    <trip id="12h55" depart="43213.00" from="C0C1" to="K10K11"/>
    <trip id="12h56" depart="43214.00" from="F11F10" to="K9L9"/>
    <trip id="12h57" depart="43214.00" from="A9B9" to="B8A8"/>
    <trip id="12h58" depart="43214.00" from="A7B7" to="K3L3"/>
    <trip id="12h59" depart="43215.00" from="L2K2" to="C10C11"/>
    <trip id="12h60" depart="43215.00" from="A5B5" to="B2A2"/>
    <trip id="12h61" depart="43215.00" from="H5H4" to="J9J8"/>
    <trip id="12h62" depart="43215.00" from="I0I1" to="B8A8"/>
    <trip id="12h63" depart="43216.00" from="E0E1" to="B8A8"/>
    <trip id="12h64" depart="43216.00" from="L10K10" to="I10I11"/>
    <trip id="12h65" depart="43216.00" from="K0K1" to="G6G7"/>
    <trip id="12h66" depart="43216.00" from="A3B3" to="K5L5"/>
    <trip id="12h67" depart="43217.00" from="A5B5" to="C10C11"/>
    <trip id="12h68" depart="43217.00" from="B11B10" to="B2A2"/>
    <trip id="12h69" depart="43218.00" from="L6K6" to="K5L5"/>
    <trip id="12h70" depart="43218.00" from="K0K1" to="C5D5"/>
    <trip id="12h71" depart="43218.00" from="L10K10" to="B2A2"/>
    <trip id="12h72" depart="43219.00" from="L2K2" to="F1F0"/>
    <trip id="12h73" depart="43219.00" from="L10K10" to="B6A6"/>
    <trip id="12h74" depart="43219.00" from="A9B9" to="C1C2"/>
    <trip id="12h75" depart="43219.00" from="I0I1" to="E10E11"/>
    <trip id="12h76" depart="43220.00" from="L8K8" to="B4A4"/>
    <trip id="12h77" depart="43220.00" from="A5B5" to="E10E11"/>
    <trip id="12h78" depart="43220.00" from="H6H5" to="G10G11"/>
    <trip id="12h79" depart="43220.00" from="J11J10" to="B10A10"/>
    <trip id="12h80" depart="43221.00" from="A3B3" to="J10J9"/>
    <trip id="12h81" depart="43221.00" from="C0C1" to="K3L3"/>
    <trip id="12h82" depart="43221.00" from="C0C1" to="E10E11"/>
    <trip id="12h83" depart="43221.00" from="A5B5" to="E10E11"/>
    <trip id="12h84" depart="43222.00" from="G2G3" to="B10A10"/>
    <trip id="12h85" depart="43222.00" from="E0E1" to="H1H0"/>
    <trip id="12h86" depart="43222.00" from="F11F10" to="K5L5"/>
    <trip id="12h87" depart="43223.00" from="A3B3" to="G10G11"/>
    <trip id="12h88" depart="43223.00" from="L2K2" to="K10K11"/>
    <trip id="12h89" depart="43223.00" from="A9B9" to="B10A10"/>
    <trip id="12h90" depart="43223.00" from="F11F10" to="K3L3"/>
    <trip id="12h91" depart="43223.00" from="E0E1" to="I10I11"/>
    <trip id="12h92" depart="43223.00" from="J11J10" to="F3G3"/>
    <trip id="12h93" depart="43223.00" from="I1J1" to="B10A10"/>
    <trip id="12h94" depart="43224.00" from="E0E1" to="B4A4"/>
    <trip id="12h95" depart="43224.00" from="B11B10" to="K3L3"/>
    <trip id="12h96" depart="43226.00" from="B11B10" to="I10I11"/>
    <trip id="12h97" depart="43226.00" from="A3B3" to="C10C11"/>
    <trip id="12h98" depart="43226.00" from="C0C1" to="G10G11"/>
    <trip id="12h99" depart="43226.00" from="B11B10" to="J1J0"/>
    <trip id="12h100" depart="43226.00" from="E0E1" to="G10G11"/>
    <trip id="12h101" depart="43227.00" from="E0E1" to="K5L5"/>
    <trip id="12h102" depart="43227.00" from="D11D10" to="K10K11"/>
    <trip id="12h103" depart="43228.00" from="A9B9" to="E10E11"/>
    <trip id="12h104" depart="43228.00" from="C9D9" to="J1J0"/>
    <trip id="12h105" depart="43228.00" from="F11F10" to="B2A2"/>
    <trip id="12h106" depart="43228.00" from="E0E1" to="H1H0"/>
    <trip id="12h107" depart="43229.00" from="I0I1" to="B2A2"/>
    <trip id="12h108" depart="43229.00" from="D11D10" to="B6A6"/>
    <trip id="12h109" depart="43229.00" from="K0K1" to="D1D0"/>
    <trip id="12h110" depart="43229.00" from="A3B3" to="B10A10"/>
    <trip id="12h111" depart="43229.00" from="I0I1" to="K1L1"/>
    <trip id="12h112" depart="43230.00" from="A1B1" to="B4A4"/>
    <trip id="12h113" depart="43230.00" from="J11J10" to="H1H0"/>
    <trip id="12h114" depart="43230.00" from="J11J10" to="K1L1"/>
    <trip id="12h115" depart="43230.00" from="H7I7" to="K10K11"/>
    <trip id="12h116" depart="43230.00" from="L2K2" to="K9L9"/>
    <trip id="12h117" depart="43230.00" from="A1B1" to="C10C11"/>
    <trip id="12h118" depart="43231.00" from="J11J10" to="I10I11"/>
    <trip id="12h119" depart="43231.00" from="L10K10" to="K3L3"/>
    <trip id="12h120" depart="43231.00" from="L8K8" to="K1L1"/>
    <trip id="12h121" depart="43231.00" from="E0E1" to="D1D0"/>
    <trip id="12h122" depart="43231.00" from="L2K2" to="K3L3"/>
    <trip id="12h123" depart="43232.00" from="L8K8" to="I10I11"/>
    <trip id="12h124" depart="43232.00" from="L10K10" to="G10G11"/>
    <trip id="12h125" depart="43233.00" from="L2K2" to="K3L3"/>
    <trip id="12h126" depart="43233.00" from="L4K4" to="B8A8"/>
    <trip id="12h127" depart="43233.00" from="A1B1" to="K3L3"/>
    <trip id="12h128" depart="43233.00" from="A9B9" to="K1L1"/>
    <trip id="12h129" depart="43233.00" from="L4K4" to="J1J0"/>
    <trip id="12h130" depart="43233.00" from="A1B1" to="K7L7"/>
    <trip id="12h131" depart="43233.00" from="K0K1" to="F1F0"/>
    <trip id="12h132" depart="43234.00" from="A9B9" to="J1J0"/>
    <trip id="12h133" depart="43234.00" from="H11H10" to="F1F0"/>
    <trip id="12h134" depart="43234.00" from="J11J10" to="B8A8"/>
    <trip id="12h135" depart="43235.00" from="A5B5" to="B6A6"/>
    <trip id="12h136" depart="43235.00" from="G0G1" to="K10K11"/>
    <trip id="12h137" depart="43235.00" from="A9B9" to="F1F0"/>
    <trip id="12h138" depart="43235.00" from="A5B5" to="B6A6"/>
    <trip id="12h139" depart="43235.00" from="A7B7" to="B10A10"/>
    <trip id="12h140" depart="43235.00" from="L8K8" to="G8G9"/>
    <trip id="12h141" depart="43236.00" from="L4K4" to="F1F0"/>
    <trip id="12h142" depart="43236.00" from="A3B3" to="K7L7"/>
    <trip id="12h143" depart="43237.00" from="I0I1" to="B1B0"/>
    <trip id="12h144" depart="43237.00" from="H11H10" to="C10C11"/>
    <trip id="12h145" depart="43237.00" from="K10J10" to="H6H5"/>
    <trip id="12h146" depart="43237.00" from="G0G1" to="F1F0"/>
    <trip id="12h147" depart="43237.00" from="I0I1" to="I10H10"/>
    <trip id="12h148" depart="43238.00" from="A9B9" to="I6H6"/>
    <trip id="12h149" depart="43238.00" from="A7B7" to="B1B0"/>
    <trip id="12h150" depart="43238.00" from="F11F10" to="H1H0"/>
    <trip id="12h151" depart="43238.00" from="B11B10" to="J1J0"/>
    <trip id="12h152" depart="43239.00" from="A7B7" to="C10C11"/>
    <trip id="12h153" depart="43240.00" from="A5B5" to="J1J0"/>
    <trip id="12h154" depart="43240.00" from="A1B1" to="E10E11"/>
    <trip id="12h155" depart="43240.00" from="B11B10" to="B1B0"/>
    <trip id="12h156" depart="43241.00" from="A1B1" to="K10K11"/>
    <trip id="12h157" depart="43241.00" from="H11H10" to="I10I11"/>
    <trip id="12h158" depart="43242.00" from="D11D10" to="C6C7"/>
    <trip id="12h159" depart="43242.00" from="J11J10" to="C10C11"/>
    <trip id="12h160" depart="43242.00" from="C0C1" to="K9L9"/>
    <trip id="12h161" depart="43243.00" from="D11D10" to="K10K11"/>
    <trip id="12h162" depart="43243.00" from="G4F4" to="K7L7"/>
    <trip id="12h163" depart="43244.00" from="L8K8" to="H9I9"/>
    <trip id="12h164" depart="43244.00" from="A7B7" to="G5H5"/>
    <trip id="12h165" depart="43244.00" from="L8K8" to="K7L7"/>
    <trip id="12h166" depart="43244.00" from="L2K2" to="F8E8"/>
    <trip id="12h167" depart="43245.00" from="L2K2" to="K9L9"/>
    <trip id="12h168" depart="43245.00" from="G6F6" to="D2C2"/>
    <trip id="12h169" depart="43245.00" from="L10K10" to="E10E11"/>
    <trip id="12h170" depart="43246.00" from="C0C1" to="H1H0"/>
    <trip id="12h171" depart="43246.00" from="G0G1" to="D1D0"/>
    <trip id="12h172" depart="43246.00" from="A9B9" to="J1J0"/>
    <trip id="12h173" depart="43246.00" from="L10K10" to="B10A10"/>
    <trip id="12h174" depart="43247.00" from="G0G1" to="H1H0"/>
    <trip id="12h175" depart="43248.00" from="F11F10" to="K9L9"/>
    <trip id="12h176" depart="43248.00" from="J11J10" to="I10I11"/>
    <trip id="12h177" depart="43249.00" from="K0K1" to="K10K11"/>
    <trip id="12h178" depart="43249.00" from="A3B3" to="I10I11"/>
    <trip id="12h179" depart="43250.00" from="I0I1" to="K5L5"/>
    <trip id="12h180" depart="43250.00" from="L10K10" to="C10C11"/>
    <trip id="12h181" depart="43250.00" from="A7B7" to="G10G11"/>
    <trip id="12h182" depart="43250.00" from="A3B3" to="K5L5"/>
    <trip id="12h183" depart="43251.00" from="L6K6" to="B4A4"/>
    <trip id="12h184" depart="43251.00" from="B11B10" to="B10A10"/>
    <trip id="12h185" depart="43251.00" from="E5F5" to="D1D0"/>
    <trip id="12h186" depart="43252.00" from="L2K2" to="B6A6"/>
    <trip id="12h187" depart="43252.00" from="H11H10" to="H1H0"/>
    <trip id="12h188" depart="43252.00" from="L8K8" to="I3J3"/>
    <trip id="12h189" depart="43252.00" from="H11H10" to="J1J0"/>
    <trip id="12h190" depart="43252.00" from="H6H5" to="F6E6"/>
    <trip id="12h191" depart="43253.00" from="L10K10" to="H7I7"/>
    <trip id="12h192" depart="43253.00" from="I0I1" to="I10I11"/>
    <trip id="12h193" depart="43253.00" from="E4E5" to="H1H0"/>
    <trip id="12h194" depart="43254.00" from="C0C1" to="K10K11"/>
    <trip id="12h195" depart="43254.00" from="A5B5" to="G10G11"/>
    <trip id="12h196" depart="43254.00" from="L2K2" to="F1F0"/>
    <trip id="12h197" depart="43255.00" from="A5B5" to="K9L9"/>
    <trip id="12h198" depart="43255.00" from="L8K8" to="K5L5"/>
    <trip id="12h199" depart="43255.00" from="L10K10" to="B10A10"/>
    <trip id="12h200" depart="43256.00" from="B11B10" to="B10A10"/>
    <trip id="12h201" depart="43256.00" from="A3B3" to="K3L3"/>
    <trip id="12h202" depart="43257.00" from="E0E1" to="B3C3"/>
    <trip id="12h203" depart="43257.00" from="F1G1" to="B2A2"/>
    <trip id="12h204" depart="43257.00" from="F11F10" to="J1J0"/>
    <trip id="12h205" depart="43257.00" from="E0E1" to="B2A2"/>
    <trip id="12h206" depart="43258.00" from="D11D10" to="E7F7"/>
    <trip id="12h207" depart="43258.00" from="J11J10" to="G10G11"/>
    <trip id="12h208" depart="43258.00" from="E0E1" to="B6A6"/>
    <trip id="12h209" depart="43258.00" from="L2K2" to="F1F0"/>
    <trip id="12h210" depart="43259.00" from="L10K10" to="B8A8"/>
    <trip id="12h211" depart="43259.00" from="H11H10" to="B1B0"/>
    <trip id="12h212" depart="43259.00" from="A9B9" to="K5L5"/>
    <trip id="12h213" depart="43259.00" from="A7B7" to="K5L5"/>
    <trip id="12h214" depart="43259.00" from="L2K2" to="B4A4"/>
    <trip id="12h215" depart="43259.00" from="B11B10" to="B4A4"/>
    <trip id="12h216" depart="43260.00" from="A1B1" to="K1L1"/>
    <trip id="12h217" depart="43260.00" from="C0C1" to="B4A4"/>
    <trip id="12h218" depart="43260.00" from="K0K1" to="G10G11"/>
    <trip id="12h219" depart="43260.00" from="G0G1" to="K7L7"/>
    <trip id="12h220" depart="43260.00" from="L10K10" to="K5L5"/>
    <trip id="12h221" depart="43261.00" from="F11F10" to="E10E11"/>
    <trip id="12h222" depart="43261.00" from="A3B3" to="H9H8"/>
    <trip id="12h223" depart="43261.00" from="B11B10" to="I10I11"/>
    <trip id="12h224" depart="43262.00" from="L8K8" to="G10G11"/>
    <trip id="12h225" depart="43262.00" from="J11J10" to="K3L3"/>
    <trip id="12h226" depart="43262.00" from="F11F10" to="B6A6"/>
    <trip id="12h227" depart="43262.00" from="F11F10" to="E10E11"/>
    <trip id="12h228" depart="43262.00" from="E0E1" to="J1J0"/>
    <trip id="12h229" depart="43263.00" from="A7B7" to="K7L7"/>
    <trip id="12h230" depart="43263.00" from="L2K2" to="B2A2"/>
    <trip id="12h231" depart="43263.00" from="K0K1" to="K2K3"/>
    <trip id="12h232" depart="43263.00" from="A5B5" to="D1D0"/>
    <trip id="12h233" depart="43264.00" from="H11H10" to="B6A6"/>
    <trip id="12h234" depart="43264.00" from="A5B5" to="K3L3"/>
    <trip id="12h235" depart="43264.00" from="K0K1" to="H1H0"/>
    <trip id="12h236" depart="43265.00" from="L6K6" to="K3L3"/>
    <trip id="12h237" depart="43265.00" from="A7B7" to="J1J0"/>
    <trip id="12h238" depart="43265.00" from="D11D10" to="B10A10"/>
    <trip id="12h239" depart="43265.00" from="I0I1" to="B10A10"/>
    <trip id="12h240" depart="43266.00" from="E0E1" to="D1D0"/>
    <trip id="12h241" depart="43266.00" from="K0K1" to="K1L1"/>
    <trip id="12h242" depart="43266.00" from="A3B3" to="B4A4"/>
    <trip id="12h243" depart="43266.00" from="I8H8" to="F1F0"/>
    <trip id="12h244" depart="43266.00" from="K0K1" to="B2A2"/>
    <trip id="12h245" depart="43267.00" from="J11J10" to="F1F0"/>
    <trip id="12h246" depart="43267.00" from="E0E1" to="H1H0"/>
    <trip id="12h247" depart="43267.00" from="C0C1" to="B6A6"/>
    <trip id="12h248" depart="43267.00" from="B11B10" to="C1C2"/>
    <trip id="12h249" depart="43267.00" from="K0K1" to="B4A4"/>
    <trip id="12h250" depart="43268.00" from="L2K2" to="B10A10"/>
    <trip id="12h251" depart="43268.00" from="L6K6" to="K5L5"/>
    <trip id="12h252" depart="43268.00" from="A1B1" to="C10C11"/>
    <trip id="12h253" depart="43269.00" from="L2K2" to="B8A8"/>
    <trip id="12h254" depart="43269.00" from="D11D10" to="C6C7"/>
    <trip id="12h255" depart="43269.00" from="G0G1" to="B2A2"/>
    <trip id="12h256" depart="43270.00" from="K0K1" to="K3L3"/>
    <trip id="12h257" depart="43270.00" from="A7B7" to="B6A6"/>
    <trip id="12h258" depart="43270.00" from="L10K10" to="F3G3"/>
    <trip id="12h259" depart="43271.00" from="A3B3" to="E6E7"/>
    <trip id="12h260" depart="43271.00" from="B11B10" to="B1B0"/>
    <trip id="12h261" depart="43272.00" from="F11F10" to="B1B0"/>
    <trip id="12h262" depart="43272.00" from="L4K4" to="K3L3"/>
    <trip id="12h263" depart="43273.00" from="F11F10" to="B4A4"/>
    <trip id="12h264" depart="43273.00" from="A5B5" to="K5L5"/>
    <trip id="12h265" depart="43273.00" from="J5K5" to="G10G11"/>
    <trip id="12h266" depart="43273.00" from="B11B10" to="E1F1"/>
    <trip id="12h267" depart="43273.00" from="D11D10" to="C10C11"/>
    <trip id="12h268" depart="43274.00" from="H11H10" to="K1L1"/>
    <trip id="12h269" depart="43274.00" from="A5B5" to="J1J0"/>
    <trip id="12h270" depart="43274.00" from="K0K1" to="I2H2"/>
    <trip id="12h271" depart="43274.00" from="H11H10" to="B4A4"/>
    <trip id="12h272" depart="43274.00" from="L8K8" to="J1J0"/>
    <trip id="12h273" depart="43275.00" from="D11D10" to="K1L1"/>
    <trip id="12h274" depart="43276.00" from="D11D10" to="B4A4"/>
    <trip id="12h275" depart="43276.00" from="L6K6" to="F1F0"/>
    <trip id="12h276" depart="43276.00" from="A5B5" to="B1B0"/>
    <trip id="12h277" depart="43276.00" from="L10K10" to="K3L3"/>
    <trip id="12h278" depart="43276.00" from="D10D9" to="K1L1"/>
    <trip id="12h279" depart="43276.00" from="D11D10" to="B4A4"/>
    <trip id="12h280" depart="43277.00" from="E1F1" to="E10E11"/>
    <trip id="12h281" depart="43277.00" from="E8E9" to="C10C11"/>
    <trip id="12h282" depart="43277.00" from="L10K10" to="F1F0"/>
    <trip id="12h283" depart="43277.00" from="L6K6" to="K9L9"/>
    <trip id="12h284" depart="43278.00" from="D11D10" to="G10G11"/>
    <trip id="12h285" depart="43278.00" from="B11B10" to="I10I11"/>
    <trip id="12h286" depart="43278.00" from="L2K2" to="K3L3"/>
    <trip id="12h287" depart="43278.00" from="K0K1" to="B8A8"/>
    <trip id="12h288" depart="43279.00" from="E1E2" to="K7L7"/>
    <trip id="12h289" depart="43279.00" from="F11F10" to="D1D0"/>
    <trip id="12h290" depart="43279.00" from="A3B3" to="G10G11"/>
    <trip id="12h291" depart="43279.00" from="L8K8" to="D1D0"/>
    <trip id="12h292" depart="43279.00" from="L6K6" to="K3L3"/>
    <trip id="12h293" depart="43279.00" from="C0C1" to="K3L3"/>
    <trip id="12h294" depart="43280.00" from="J11J10" to="F1F0"/>
    <trip id="12h295" depart="43280.00" from="A3B3" to="B8A8"/>
    <trip id="12h296" depart="43280.00" from="C0C1" to="C10C11"/>
    <trip id="12h297" depart="43280.00" from="E0E1" to="K1L1"/>
    <trip id="12h298" depart="43280.00" from="L4K4" to="H1H0"/>
    <trip id="12h299" depart="43281.00" from="G0G1" to="B8A8"/>
    <trip id="12h300" depart="43281.00" from="E0E1" to="I10I11"/>
    <trip id="12h301" depart="43281.00" from="E0E1" to="J10J9"/>
    <trip id="12h302" depart="43281.00" from="L8K8" to="B1B0"/>
    <trip id="12h303" depart="43282.00" from="A1B1" to="K1L1"/>
    <trip id="12h304" depart="43282.00" from="K0K1" to="I10I11"/>
    <trip id="12h305" depart="43282.00" from="A1B1" to="G10G11"/>
    <trip id="12h306" depart="43282.00" from="L10K10" to="F1F0"/>
    <trip id="12h307" depart="43283.00" from="L10K10" to="F1F0"/>
    <trip id="12h308" depart="43283.00" from="A1B1" to="B6A6"/>
    <trip id="12h309" depart="43283.00" from="L6K6" to="G10G11"/>
    <trip id="12h310" depart="43283.00" from="K0K1" to="B6A6"/>
    <trip id="12h311" depart="43283.00" from="L10K10" to="K5L5"/>
    <trip id="12h312" depart="43283.00" from="A5B5" to="D1D0"/>
    <trip id="12h313" depart="43285.00" from="H2H1" to="K3L3"/>
    <trip id="12h314" depart="43285.00" from="A3B3" to="I6I7"/>
    <trip id="12h315" depart="43285.00" from="H2H1" to="E10E11"/>
    <trip id="12h316" depart="43285.00" from="A1B1" to="K5L5"/>
    <trip id="12h317" depart="43285.00" from="L8K8" to="B8A8"/>
    <trip id="12h318" depart="43286.00" from="I0I1" to="D1D0"/>
    <trip id="12h319" depart="43286.00" from="H8G8" to="K1L1"/>
    <trip id="12h320" depart="43286.00" from="A3B3" to="K1L1"/>
    <trip id="12h321" depart="43286.00" from="D11D10" to="H1H0"/>
    <trip id="12h322" depart="43287.00" from="K0K1" to="H1H0"/>
    <trip id="12h323" depart="43287.00" from="A5B5" to="K10K11"/>
    <trip id="12h324" depart="43287.00" from="B11B10" to="F10F9"/>
    <trip id="12h325" depart="43288.00" from="L6K6" to="F1F0"/>
    <trip id="12h326" depart="43288.00" from="L2K2" to="F1F0"/>
    <trip id="12h327" depart="43288.00" from="J11J10" to="K3L3"/>
    <trip id="12h328" depart="43288.00" from="D11D10" to="B1B0"/>
    <trip id="12h329" depart="43289.00" from="A9B9" to="B2B1"/>
    <trip id="12h330" depart="43289.00" from="G9G10" to="D1D0"/>
    <trip id="12h331" depart="43290.00" from="C0C1" to="K9L9"/>
    <trip id="12h332" depart="43290.00" from="L8K8" to="I10I11"/>
    <trip id="12h333" depart="43290.00" from="L4K4" to="K1L1"/>
    <trip id="12h334" depart="43291.00" from="L8K8" to="E10E11"/>
    <trip id="12h335" depart="43291.00" from="A5B5" to="B4A4"/>
    <trip id="12h336" depart="43291.00" from="C0C1" to="J1J0"/>
    <trip id="12h337" depart="43291.00" from="L6K6" to="K5L5"/>
    <trip id="12h338" depart="43291.00" from="I0I1" to="G5H5"/>
    <trip id="12h339" depart="43291.00" from="C0C1" to="G10G11"/>
    <trip id="12h340" depart="43291.00" from="L6K6" to="B4A4"/>
    <trip id="12h341" depart="43292.00" from="A1B1" to="I10I11"/>
    <trip id="12h342" depart="43293.00" from="L8K8" to="F1F0"/>
    <trip id="12h343" depart="43293.00" from="A3B3" to="B1B0"/>
    <trip id="12h344" depart="43294.00" from="H7H6" to="C10C11"/>
    <trip id="12h345" depart="43294.00" from="D11D10" to="H1H0"/>
    <trip id="12h346" depart="43294.00" from="F11F10" to="B8A8"/>
    <trip id="12h347" depart="43294.00" from="A5B5" to="C10C11"/>
    <trip id="12h348" depart="43295.00" from="L4K4" to="B4A4"/>
    <trip id="12h349" depart="43295.00" from="H11H10" to="C10C11"/>
    <trip id="12h350" depart="43295.00" from="A1B1" to="K7L7"/>
    <trip id="12h351" depart="43295.00" from="D11D10" to="B1B0"/>
    <trip id="12h352" depart="43297.00" from="E0E1" to="H1H0"/>
    <trip id="12h353" depart="43297.00" from="G8G9" to="B1B0"/>
    <trip id="12h354" depart="43297.00" from="L8K8" to="J1J0"/>
    <trip id="12h355" depart="43297.00" from="L8K8" to="E10E11"/>
    <trip id="12h356" depart="43297.00" from="L6K6" to="K10K11"/>
    <trip id="12h357" depart="43297.00" from="G0G1" to="G10F10"/>
    <trip id="12h358" depart="43297.00" from="A5B5" to="C6C7"/>
    <trip id="12h359" depart="43298.00" from="I0I1" to="B4A4"/>
    <trip id="12h360" depart="43298.00" from="D10C10" to="K3L3"/>
    <trip id="12h361" depart="43299.00" from="L10K10" to="D1D0"/>
    <trip id="12h362" depart="43299.00" from="F11F10" to="K9L9"/>
    <trip id="12h363" depart="43300.00" from="I0I1" to="I10I11"/>
    <trip id="12h364" depart="43300.00" from="J11J10" to="B10A10"/>
    <trip id="12h365" depart="43300.00" from="A1B1" to="C10C11"/>
    <trip id="12h366" depart="43300.00" from="J11J10" to="E10E11"/>
    <trip id="12h367" depart="43301.00" from="A7B7" to="B6A6"/>
    <trip id="12h368" depart="43301.00" from="I8H8" to="G10G11"/>
    <trip id="12h369" depart="43301.00" from="A7B7" to="K7L7"/>
    <trip id="12h370" depart="43301.00" from="D11D10" to="K1L1"/>
    <trip id="12h371" depart="43302.00" from="B11B10" to="H1H0"/>
    <trip id="12h372" depart="43302.00" from="L8K8" to="C10C11"/>
    <trip id="12h373" depart="43302.00" from="A9B9" to="J1J0"/>
    <trip id="12h374" depart="43302.00" from="D11D10" to="K7L7"/>
    <trip id="12h375" depart="43302.00" from="A5B5" to="J1J0"/>
    <trip id="12h376" depart="43302.00" from="L8K8" to="K3L3"/>
    <trip id="12h377" depart="43303.00" from="C0C1" to="J5J4"/>
    <trip id="12h378" depart="43303.00" from="E6E7" to="B8A8"/>
    <trip id="12h379" depart="43303.00" from="G0G1" to="K7L7"/>
    <trip id="12h380" depart="43303.00" from="I0I1" to="H1H0"/>
    <trip id="12h381" depart="43303.00" from="J11J10" to="G10G11"/>
    <trip id="12h382" depart="43303.00" from="E0E1" to="J8J7"/>
    <trip id="12h383" depart="43303.00" from="L10K10" to="B10A10"/>
    <trip id="12h384" depart="43304.00" from="L8K8" to="C10C11"/>
    <trip id="12h385" depart="43304.00" from="H11H10" to="G10G11"/>
    <trip id="12h386" depart="43305.00" from="L4K4" to="B4A4"/>
    <trip id="12h387" depart="43306.00" from="H11H10" to="B2A2"/>
    <trip id="12h388" depart="43306.00" from="L8K8" to="G10G11"/>
    <trip id="12h389" depart="43306.00" from="A5B5" to="B4A4"/>
    <trip id="12h390" depart="43307.00" from="A9B9" to="K10K11"/>
    <trip id="12h391" depart="43307.00" from="L2K2" to="K5L5"/>
    <trip id="12h392" depart="43307.00" from="J11J10" to="B4A4"/>
    <trip id="12h393" depart="43307.00" from="C0C1" to="B8A8"/>
    <trip id="12h394" depart="43308.00" from="B11B10" to="K10K11"/>
    <trip id="12h395" depart="43308.00" from="K0K1" to="B10A10"/>
    <trip id="12h396" depart="43308.00" from="A5B5" to="C10C11"/>
    <trip id="12h397" depart="43309.00" from="A5B5" to="K7L7"/>
    <trip id="12h398" depart="43309.00" from="I0I1" to="B6A6"/>
    <trip id="12h399" depart="43309.00" from="A7B7" to="K10K11"/>
    <trip id="12h400" depart="43309.00" from="B11B10" to="K10K11"/>
    <trip id="12h401" depart="43310.00" from="F11F10" to="J1J0"/>
    <trip id="12h402" depart="43310.00" from="H11H10" to="B1B0"/>
    <trip id="12h403" depart="43310.00" from="C1C2" to="G10G11"/>
    <trip id="12h404" depart="43310.00" from="A9B9" to="H1H0"/>
    <trip id="12h405" depart="43310.00" from="G0G1" to="K1L1"/>
    <trip id="12h406" depart="43311.00" from="F11F10" to="K1L1"/>
    <trip id="12h407" depart="43311.00" from="D11D10" to="B1B0"/>
    <trip id="12h408" depart="43312.00" from="L6K6" to="B10A10"/>
    <trip id="12h409" depart="43313.00" from="J11J10" to="I7J7"/>
    <trip id="12h410" depart="43313.00" from="A7B7" to="G10G11"/>
    <trip id="12h411" depart="43313.00" from="A1B1" to="B10A10"/>
    <trip id="12h412" depart="43313.00" from="J11J10" to="G10G11"/>
    <trip id="12h413" depart="43314.00" from="D11D10" to="B8A8"/>
    <trip id="12h414" depart="43314.00" from="L10K10" to="E10E11"/>
    <trip id="12h415" depart="43314.00" from="A9B9" to="B2A2"/>
    <trip id="12h416" depart="43314.00" from="H11H10" to="J1J0"/>
    <trip id="12h417" depart="43315.00" from="K0K1" to="E10E11"/>
    <trip id="12h418" depart="43315.00" from="A9B9" to="K5L5"/>
    <trip id="12h419" depart="43315.00" from="G0G1" to="C10C11"/>
    <trip id="12h420" depart="43315.00" from="H11H10" to="J1J0"/>
    <trip id="12h421" depart="43315.00" from="C0C1" to="B4A4"/>
    <trip id="12h422" depart="43315.00" from="C0C1" to="B1B0"/>
    <trip id="12h423" depart="43316.00" from="E0E1" to="B4A4"/>
    <trip id="12h424" depart="43317.00" from="K0K1" to="F1F0"/>
    <trip id="12h425" depart="43317.00" from="J11J10" to="K1L1"/>
    <trip id="12h426" depart="43317.00" from="B11B10" to="B6A6"/>
    <trip id="12h427" depart="43318.00" from="K0K1" to="B6A6"/>
    <trip id="12h428" depart="43318.00" from="J11J10" to="H3H2"/>
    <trip id="12h429" depart="43318.00" from="K0K1" to="K10K11"/>
    <trip id="12h430" depart="43318.00" from="L8K8" to="B10A10"/>
    <trip id="12h431" depart="43319.00" from="L8K8" to="F1F0"/>
    <trip id="12h432" depart="43319.00" from="H4H3" to="B6A6"/>
    <trip id="12h433" depart="43319.00" from="B11B10" to="G10G11"/>
    <trip id="12h434" depart="43320.00" from="L8K8" to="F1F0"/>
    <trip id="12h435" depart="43320.00" from="E0E1" to="H1H0"/>
    <trip id="12h436" depart="43320.00" from="A7B7" to="B8A8"/>
    <trip id="12h437" depart="43320.00" from="C3C4" to="D1D0"/>
    <trip id="12h438" depart="43321.00" from="L2K2" to="K9L9"/>
    <trip id="12h439" depart="43321.00" from="L10K10" to="B4A4"/>
    <trip id="12h440" depart="43322.00" from="A1B1" to="K3L3"/>
    <trip id="12h441" depart="43322.00" from="J11J10" to="B10A10"/>
    <trip id="12h442" depart="43323.00" from="I0I1" to="J1J0"/>
    <trip id="12h443" depart="43323.00" from="G6G7" to="B10A10"/>
    <trip id="12h444" depart="43323.00" from="L8K8" to="B10A10"/>
    <trip id="12h445" depart="43324.00" from="A5B5" to="B4A4"/>
    <trip id="12h446" depart="43324.00" from="G0G1" to="K3L3"/>
    <trip id="12h447" depart="43324.00" from="E0E1" to="D1D0"/>
    <trip id="12h448" depart="43324.00" from="J11J10" to="K3L3"/>
    <trip id="12h449" depart="43325.00" from="D11D10" to="G7H7"/>
    <trip id="12h450" depart="43325.00" from="A1B1" to="B4A4"/>
    <trip id="12h451" depart="43325.00" from="G0G1" to="B10A10"/>
    <trip id="12h452" depart="43325.00" from="L4K4" to="K5L5"/>