<?xml version="1.0" encoding="UTF-8"?>
<!-- generated on 2020-12-09 02:55:07.885024 by randomTrips.py v1_7_0+0000-714814baed
  options: -n .\data/grid01-bcn_06.net.xml <doubleminus>prefix=11h <doubleminus>fringe-factor 100 -b 39600 -e 43200 -p0.24380333197887039 <doubleminus>binomial 10 -odata/random/random_h_11-bcn_06.trips.rou.xml <doubleminus>edge-permission=passenger
-->
<routes xmlns:xsi="http://www.w3.org/2001/XMLSchema-instance" xsi:noNamespaceSchemaLocation="http://sumo.dlr.de/xsd/routes_file.xsd">
    <trip id="11h0" depart="39600.00" from="B11B10" to="B6A6"/>
    <trip id="11h1" depart="39600.00" from="E0E1" to="B10A10"/>
    <trip id="11h2" depart="39600.00" from="G0G1" to="B10A10"/>
    <trip id="11h3" depart="39600.00" from="I0I1" to="G10G11"/>
    <trip id="11h4" depart="39600.00" from="H11H10" to="K1L1"/>
    <trip id="11h5" depart="39600.00" from="L10K10" to="J1J0"/>
    <trip id="11h6" depart="39601.00" from="A7B7" to="K9L9"/>
    <trip id="11h7" depart="39601.00" from="A5B5" to="B2A2"/>
    <trip id="11h8" depart="39601.00" from="G7G8" to="K3L3"/>
    <trip id="11h9" depart="39602.00" from="A9B9" to="C10C11"/>
    <trip id="11h10" depart="39602.00" from="B11B10" to="B2A2"/>
    <trip id="11h11" depart="39602.00" from="I0I1" to="D1D0"/>
    <trip id="11h12" depart="39602.00" from="A9B9" to="B8A8"/>
    <trip id="11h13" depart="39603.00" from="K0K1" to="B4A4"/>
    <trip id="11h14" depart="39603.00" from="L8K8" to="I10I11"/>
    <trip id="11h15" depart="39603.00" from="A1B1" to="C10C11"/>
    <trip id="11h16" depart="39603.00" from="A9B9" to="K7L7"/>
    <trip id="11h17" depart="39603.00" from="I10H10" to="E10E11"/>
    <trip id="11h18" depart="39604.00" from="B11B10" to="H1H0"/>
    <trip id="11h19" depart="39604.00" from="H11H10" to="K5L5"/>
    <trip id="11h20" depart="39604.00" from="A9B9" to="K9L9"/>
    <trip id="11h21" depart="39604.00" from="A3B3" to="B2A2"/>
    <trip id="11h22" depart="39605.00" from="D11D10" to="K9L9"/>
    <trip id="11h23" depart="39605.00" from="K0K1" to="J1J0"/>
    <trip id="11h24" depart="39605.00" from="I0I1" to="B2A2"/>
    <trip id="11h25" depart="39606.00" from="G0G1" to="B4A4"/>
    <trip id="11h26" depart="39606.00" from="I0I1" to="H9I9"/>
    <trip id="11h27" depart="39606.00" from="K0K1" to="G10G11"/>
    <trip id="11h28" depart="39606.00" from="C0C1" to="B10A10"/>
    <trip id="11h29" depart="39607.00" from="A3B3" to="K5L5"/>
    <trip id="11h30" depart="39607.00" from="F11F10" to="B1B0"/>
    <trip id="11h31" depart="39607.00" from="F11F10" to="G4G5"/>
    <trip id="11h32" depart="39607.00" from="L4K4" to="E10E11"/>
    <trip id="11h33" depart="39607.00" from="G0G1" to="K10K11"/>
    <trip id="11h34" depart="39608.00" from="C0C1" to="K9L9"/>
    <trip id="11h35" depart="39608.00" from="A9B9" to="D1D0"/>
    <trip id="11h36" depart="39608.00" from="A9B9" to="B1B0"/>
    <trip id="11h37" depart="39608.00" from="L4K4" to="K5L5"/>
    <trip id="11h38" depart="39608.00" from="B11B10" to="J1J0"/>
    <trip id="11h39" depart="39609.00" from="A5B5" to="K7L7"/>
    <trip id="11h40" depart="39609.00" from="A5B5" to="E10E11"/>
    <trip id="11h41" depart="39610.00" from="E0E1" to="D1D0"/>
    <trip id="11h42" depart="39610.00" from="A9B9" to="F1F0"/>
    <trip id="11h43" depart="39610.00" from="B11B10" to="K7L7"/>
    <trip id="11h44" depart="39610.00" from="L8K8" to="K3L3"/>
    <trip id="11h45" depart="39611.00" from="F11F10" to="B6A6"/>
    <trip id="11h46" depart="39611.00" from="A3B3" to="D1D0"/>
    <trip id="11h47" depart="39611.00" from="L10K10" to="F1F0"/>
    <trip id="11h48" depart="39612.00" from="C0C1" to="K9L9"/>
    <trip id="11h49" depart="39612.00" from="H11H10" to="G10G11"/>
    <trip id="11h50" depart="39612.00" from="L8K8" to="B1B0"/>
    <trip id="11h51" depart="39612.00" from="H11H10" to="J1J0"/>
    <trip id="11h52" depart="39613.00" from="A5B5" to="K5L5"/>
    <trip id="11h53" depart="39613.00" from="H11H10" to="I10I11"/>
    <trip id="11h54" depart="39613.00" from="J7K7" to="B8A8"/>
    <trip id="11h55" depart="39613.00" from="J11J10" to="C10C11"/>
    <trip id="11h56" depart="39613.00" from="K0K1" to="B1B0"/>
    <trip id="11h57" depart="39614.00" from="A9B9" to="B8A8"/>
    <trip id="11h58" depart="39614.00" from="A7B7" to="K3L3"/>
    <trip id="11h59" depart="39615.00" from="L2K2" to="C10C11"/>
    <trip id="11h60" depart="39615.00" from="A5B5" to="B2A2"/>
    <trip id="11h61" depart="39615.00" from="H5H4" to="J9J8"/>
    <trip id="11h62" depart="39615.00" from="I0I1" to="B8A8"/>
    <trip id="11h63" depart="39616.00" from="E0E1" to="B8A8"/>
    <trip id="11h64" depart="39616.00" from="L10K10" to="I10I11"/>
    <trip id="11h65" depart="39616.00" from="K0K1" to="G6G7"/>
    <trip id="11h66" depart="39616.00" from="A3B3" to="K5L5"/>
    <trip id="11h67" depart="39617.00" from="A5B5" to="C10C11"/>
    <trip id="11h68" depart="39617.00" from="B11B10" to="B2A2"/>
    <trip id="11h69" depart="39617.00" from="I0I1" to="B4A4"/>
    <trip id="11h70" depart="39618.00" from="K0K1" to="C5D5"/>
    <trip id="11h71" depart="39618.00" from="L10K10" to="B2A2"/>
    <trip id="11h72" depart="39619.00" from="L2K2" to="F1F0"/>
    <trip id="11h73" depart="39619.00" from="L10K10" to="B6A6"/>
    <trip id="11h74" depart="39619.00" from="A9B9" to="C1C2"/>
    <trip id="11h75" depart="39619.00" from="I0I1" to="E10E11"/>
    <trip id="11h76" depart="39620.00" from="L8K8" to="B4A4"/>
    <trip id="11h77" depart="39620.00" from="A5B5" to="E10E11"/>
    <trip id="11h78" depart="39620.00" from="H6H5" to="G10G11"/>
    <trip id="11h79" depart="39620.00" from="H11H10" to="B8A8"/>
    <trip id="11h80" depart="39620.00" from="L6K6" to="G10G11"/>
    <trip id="11h81" depart="39621.00" from="A3B3" to="J10J9"/>
    <trip id="11h82" depart="39621.00" from="C0C1" to="K3L3"/>
    <trip id="11h83" depart="39621.00" from="C0C1" to="E10E11"/>
    <trip id="11h84" depart="39621.00" from="C0C1" to="B2A2"/>
    <trip id="11h85" depart="39622.00" from="G2G3" to="B10A10"/>
    <trip id="11h86" depart="39622.00" from="E0E1" to="H1H0"/>
    <trip id="11h87" depart="39622.00" from="F11F10" to="K5L5"/>
    <trip id="11h88" depart="39622.00" from="A3B3" to="G10G11"/>
    <trip id="11h89" depart="39623.00" from="L2K2" to="K10K11"/>
    <trip id="11h90" depart="39623.00" from="A9B9" to="B10A10"/>
    <trip id="11h91" depart="39623.00" from="F11F10" to="K3L3"/>
    <trip id="11h92" depart="39623.00" from="E0E1" to="I10I11"/>
    <trip id="11h93" depart="39623.00" from="J11J10" to="F3G3"/>
    <trip id="11h94" depart="39623.00" from="I1J1" to="B10A10"/>
    <trip id="11h95" depart="39624.00" from="E0E1" to="B4A4"/>
    <trip id="11h96" depart="39624.00" from="B11B10" to="K3L3"/>
    <trip id="11h97" depart="39625.00" from="B11B10" to="I10I11"/>
    <trip id="11h98" depart="39626.00" from="A3B3" to="C10C11"/>
    <trip id="11h99" depart="39626.00" from="C0C1" to="G10G11"/>
    <trip id="11h100" depart="39626.00" from="B11B10" to="J1J0"/>
    <trip id="11h101" depart="39626.00" from="E0E1" to="G10G11"/>
    <trip id="11h102" depart="39626.00" from="E0E1" to="K5L5"/>
    <trip id="11h103" depart="39627.00" from="A1B1" to="D1D0"/>
    <trip id="11h104" depart="39628.00" from="A9B9" to="E10E11"/>
    <trip id="11h105" depart="39628.00" from="C9D9" to="J1J0"/>
    <trip id="11h106" depart="39628.00" from="A7B7" to="F1F0"/>
    <trip id="11h107" depart="39628.00" from="I0I1" to="B10A10"/>
    <trip id="11h108" depart="39628.00" from="H11H10" to="B10A10"/>
    <trip id="11h109" depart="39628.00" from="F11F10" to="B1B0"/>
    <trip id="11h110" depart="39628.00" from="A9B9" to="C10C11"/>
    <trip id="11h111" depart="39629.00" from="K0K1" to="K3L3"/>
    <trip id="11h112" depart="39629.00" from="A3B3" to="B10A10"/>
    <trip id="11h113" depart="39629.00" from="I0I1" to="K1L1"/>
    <trip id="11h114" depart="39629.00" from="A1B1" to="B4A4"/>
    <trip id="11h115" depart="39630.00" from="J11J10" to="H1H0"/>
    <trip id="11h116" depart="39630.00" from="J11J10" to="K1L1"/>
    <trip id="11h117" depart="39630.00" from="H7I7" to="K10K11"/>
    <trip id="11h118" depart="39630.00" from="L2K2" to="K9L9"/>
    <trip id="11h119" depart="39630.00" from="A1B1" to="C10C11"/>
    <trip id="11h120" depart="39630.00" from="J6I6" to="B1B0"/>
    <trip id="11h121" depart="39631.00" from="L10K10" to="K3L3"/>
    <trip id="11h122" depart="39631.00" from="L8K8" to="K1L1"/>
    <trip id="11h123" depart="39631.00" from="E0E1" to="D1D0"/>
    <trip id="11h124" depart="39631.00" from="L2K2" to="K3L3"/>
    <trip id="11h125" depart="39631.00" from="L8K8" to="I10I11"/>
    <trip id="11h126" depart="39632.00" from="L10K10" to="G10G11"/>
    <trip id="11h127" depart="39632.00" from="L2K2" to="K3L3"/>
    <trip id="11h128" depart="39632.00" from="L4K4" to="B8A8"/>
    <trip id="11h129" depart="39633.00" from="A1B1" to="K3L3"/>
    <trip id="11h130" depart="39633.00" from="A9B9" to="K1L1"/>
    <trip id="11h131" depart="39633.00" from="L4K4" to="J1J0"/>
    <trip id="11h132" depart="39633.00" from="A1B1" to="K7L7"/>
    <trip id="11h133" depart="39633.00" from="K0K1" to="F1F0"/>
    <trip id="11h134" depart="39634.00" from="A9B9" to="J1J0"/>
    <trip id="11h135" depart="39634.00" from="H11H10" to="F1F0"/>
    <trip id="11h136" depart="39634.00" from="J11J10" to="B8A8"/>
    <trip id="11h137" depart="39634.00" from="A5B5" to="B6A6"/>
    <trip id="11h138" depart="39634.00" from="G0G1" to="K10K11"/>
    <trip id="11h139" depart="39634.00" from="A9B9" to="F1F0"/>
    <trip id="11h140" depart="39635.00" from="A5B5" to="B6A6"/>
    <trip id="11h141" depart="39635.00" from="A7B7" to="B10A10"/>
    <trip id="11h142" depart="39635.00" from="L8K8" to="G8G9"/>
    <trip id="11h143" depart="39635.00" from="L4K4" to="F1F0"/>
    <trip id="11h144" depart="39636.00" from="A3B3" to="K7L7"/>
    <trip id="11h145" depart="39636.00" from="A3B3" to="I10I11"/>
    <trip id="11h146" depart="39636.00" from="A7B7" to="H1H0"/>
    <trip id="11h147" depart="39636.00" from="L8K8" to="B2A2"/>
    <trip id="11h148" depart="39637.00" from="G0G1" to="F1F0"/>
    <trip id="11h149" depart="39637.00" from="I0I1" to="I10H10"/>
    <trip id="11h150" depart="39637.00" from="A9B9" to="I6H6"/>
    <trip id="11h151" depart="39637.00" from="A7B7" to="B1B0"/>
    <trip id="11h152" depart="39638.00" from="F11F10" to="H1H0"/>
    <trip id="11h153" depart="39638.00" from="B11B10" to="J1J0"/>
    <trip id="11h154" depart="39639.00" from="A7B7" to="C10C11"/>
    <trip id="11h155" depart="39639.00" from="A5B5" to="J1J0"/>
    <trip id="11h156" depart="39640.00" from="A1B1" to="E10E11"/>
    <trip id="11h157" depart="39640.00" from="B11B10" to="B1B0"/>
    <trip id="11h158" depart="39641.00" from="A1B1" to="K10K11"/>
    <trip id="11h159" depart="39641.00" from="H11H10" to="I10I11"/>
    <trip id="11h160" depart="39641.00" from="D11D10" to="C6C7"/>
    <trip id="11h161" depart="39642.00" from="J11J10" to="C10C11"/>
    <trip id="11h162" depart="39642.00" from="C0C1" to="K9L9"/>
    <trip id="11h163" depart="39642.00" from="G0G1" to="K9L9"/>
    <trip id="11h164" depart="39643.00" from="D11D10" to="K10K11"/>
    <trip id="11h165" depart="39643.00" from="G4F4" to="K7L7"/>
    <trip id="11h166" depart="39643.00" from="L8K8" to="H9I9"/>
    <trip id="11h167" depart="39643.00" from="A7B7" to="G5H5"/>
    <trip id="11h168" depart="39643.00" from="L8K8" to="K7L7"/>
    <trip id="11h169" depart="39644.00" from="L2K2" to="F8E8"/>
    <trip id="11h170" depart="39644.00" from="L2K2" to="K9L9"/>
    <trip id="11h171" depart="39644.00" from="G6F6" to="D2C2"/>
    <trip id="11h172" depart="39645.00" from="L10K10" to="E10E11"/>
    <trip id="11h173" depart="39645.00" from="C0C1" to="H1H0"/>
    <trip id="11h174" depart="39645.00" from="G0G1" to="D1D0"/>
    <trip id="11h175" depart="39646.00" from="A9B9" to="J1J0"/>
    <trip id="11h176" depart="39646.00" from="L10K10" to="B10A10"/>
    <trip id="11h177" depart="39646.00" from="I9J9" to="K3L3"/>
    <trip id="11h178" depart="39647.00" from="G0G1" to="H1H0"/>
    <trip id="11h179" depart="39647.00" from="I0I1" to="B4A4"/>
    <trip id="11h180" depart="39648.00" from="J11J10" to="I10I11"/>
    <trip id="11h181" depart="39648.00" from="C0C1" to="K10J10"/>
    <trip id="11h182" depart="39648.00" from="A3B3" to="I10I11"/>
    <trip id="11h183" depart="39649.00" from="I0I1" to="K5L5"/>
    <trip id="11h184" depart="39649.00" from="L10K10" to="C10C11"/>
    <trip id="11h185" depart="39649.00" from="A7B7" to="G10G11"/>
    <trip id="11h186" depart="39650.00" from="A3B3" to="K5L5"/>
    <trip id="11h187" depart="39650.00" from="L6K6" to="B4A4"/>
    <trip id="11h188" depart="39650.00" from="B11B10" to="B10A10"/>
    <trip id="11h189" depart="39650.00" from="E5F5" to="D1D0"/>
    <trip id="11h190" depart="39651.00" from="L2K2" to="B6A6"/>
    <trip id="11h191" depart="39651.00" from="F11F10" to="B8A8"/>
    <trip id="11h192" depart="39651.00" from="L8K8" to="I3J3"/>
    <trip id="11h193" depart="39651.00" from="H11H10" to="J1J0"/>
    <trip id="11h194" depart="39652.00" from="H6H5" to="F6E6"/>
    <trip id="11h195" depart="39652.00" from="L10K10" to="H7I7"/>
    <trip id="11h196" depart="39652.00" from="I0I1" to="I10I11"/>
    <trip id="11h197" depart="39653.00" from="E4E5" to="H1H0"/>
    <trip id="11h198" depart="39653.00" from="C0C1" to="K10K11"/>
    <trip id="11h199" depart="39653.00" from="A5B5" to="G10G11"/>
    <trip id="11h200" depart="39653.00" from="L2K2" to="F1F0"/>
    <trip id="11h201" depart="39654.00" from="A5B5" to="K9L9"/>
    <trip id="11h202" depart="39654.00" from="L8K8" to="K5L5"/>
    <trip id="11h203" depart="39654.00" from="L10K10" to="B10A10"/>
    <trip id="11h204" depart="39655.00" from="B11B10" to="B10A10"/>
    <trip id="11h205" depart="39656.00" from="A3B3" to="K3L3"/>
    <trip id="11h206" depart="39656.00" from="E0E1" to="B3C3"/>
    <trip id="11h207" depart="39656.00" from="F1G1" to="B2A2"/>
    <trip id="11h208" depart="39656.00" from="F11F10" to="J1J0"/>
    <trip id="11h209" depart="39657.00" from="E0E1" to="B2A2"/>
    <trip id="11h210" depart="39657.00" from="L6K6" to="B10A10"/>
    <trip id="11h211" depart="39657.00" from="E7F7" to="K7L7"/>
    <trip id="11h212" depart="39657.00" from="J11J10" to="G10G11"/>
    <trip id="11h213" depart="39657.00" from="E0E1" to="B6A6"/>
    <trip id="11h214" depart="39657.00" from="L2K2" to="F1F0"/>
    <trip id="11h215" depart="39658.00" from="L10K10" to="B8A8"/>
    <trip id="11h216" depart="39658.00" from="H11H10" to="B1B0"/>
    <trip id="11h217" depart="39658.00" from="A9B9" to="K5L5"/>
    <trip id="11h218" depart="39658.00" from="A7B7" to="K5L5"/>
    <trip id="11h219" depart="39658.00" from="L2K2" to="B4A4"/>
    <trip id="11h220" depart="39658.00" from="B11B10" to="B4A4"/>
    <trip id="11h221" depart="39659.00" from="A1B1" to="K1L1"/>
    <trip id="11h222" depart="39659.00" from="C0C1" to="B4A4"/>
    <trip id="11h223" depart="39659.00" from="K0K1" to="G10G11"/>
    <trip id="11h224" depart="39659.00" from="G0G1" to="K7L7"/>
    <trip id="11h225" depart="39659.00" from="L10K10" to="K5L5"/>
    <trip id="11h226" depart="39660.00" from="F11F10" to="E10E11"/>
    <trip id="11h227" depart="39660.00" from="A3B3" to="H9H8"/>
    <trip id="11h228" depart="39660.00" from="B11B10" to="I10I11"/>
    <trip id="11h229" depart="39661.00" from="L8K8" to="G10G11"/>
    <trip id="11h230" depart="39661.00" from="J11J10" to="K3L3"/>
    <trip id="11h231" depart="39661.00" from="F11F10" to="B6A6"/>
    <trip id="11h232" depart="39661.00" from="F11F10" to="E10E11"/>
    <trip id="11h233" depart="39661.00" from="E0E1" to="J1J0"/>
    <trip id="11h234" depart="39662.00" from="A7B7" to="K7L7"/>
    <trip id="11h235" depart="39662.00" from="L2K2" to="B2A2"/>
    <trip id="11h236" depart="39662.00" from="K0K1" to="K2K3"/>
    <trip id="11h237" depart="39662.00" from="A5B5" to="D1D0"/>
    <trip id="11h238" depart="39663.00" from="H11H10" to="B6A6"/>
    <trip id="11h239" depart="39663.00" from="A5B5" to="K3L3"/>
    <trip id="11h240" depart="39663.00" from="K0K1" to="H1H0"/>
    <trip id="11h241" depart="39664.00" from="L6K6" to="K3L3"/>
    <trip id="11h242" depart="39664.00" from="A7B7" to="J1J0"/>
    <trip id="11h243" depart="39664.00" from="D11D10" to="B10A10"/>
    <trip id="11h244" depart="39664.00" from="A7B7" to="I10I11"/>
    <trip id="11h245" depart="39664.00" from="K0K1" to="B6A6"/>
    <trip id="11h246" depart="39665.00" from="D11D10" to="K10K11"/>
    <trip id="11h247" depart="39665.00" from="A3B3" to="B4A4"/>
    <trip id="11h248" depart="39665.00" from="I8H8" to="F1F0"/>
    <trip id="11h249" depart="39665.00" from="K0K1" to="B2A2"/>
    <trip id="11h250" depart="39666.00" from="J11J10" to="F1F0"/>
    <trip id="11h251" depart="39666.00" from="E0E1" to="H1H0"/>
    <trip id="11h252" depart="39666.00" from="C0C1" to="B6A6"/>
    <trip id="11h253" depart="39666.00" from="B11B10" to="C1C2"/>
    <trip id="11h254" depart="39666.00" from="K0K1" to="B4A4"/>
    <trip id="11h255" depart="39666.00" from="J11J10" to="G10F10"/>
    <trip id="11h256" depart="39667.00" from="L2K2" to="B10A10"/>
    <trip id="11h257" depart="39667.00" from="L6K6" to="K5L5"/>
    <trip id="11h258" depart="39667.00" from="A1B1" to="C10C11"/>
    <trip id="11h259" depart="39668.00" from="L2K2" to="B8A8"/>
    <trip id="11h260" depart="39668.00" from="C0C1" to="D1D0"/>
    <trip id="11h261" depart="39668.00" from="A7B7" to="G10G11"/>
    <trip id="11h262" depart="39668.00" from="G0G1" to="K6J6"/>
    <trip id="11h263" depart="39668.00" from="K0K1" to="K3L3"/>
    <trip id="11h264" depart="39668.00" from="A7B7" to="B6A6"/>
    <trip id="11h265" depart="39669.00" from="L10K10" to="F3G3"/>
    <trip id="11h266" depart="39670.00" from="A3B3" to="E6E7"/>
    <trip id="11h267" depart="39670.00" from="B11B10" to="B1B0"/>
    <trip id="11h268" depart="39670.00" from="F11F10" to="B1B0"/>
    <trip id="11h269" depart="39670.00" from="L4K4" to="K3L3"/>
    <trip id="11h270" depart="39671.00" from="F11F10" to="B4A4"/>
    <trip id="11h271" depart="39671.00" from="A5B5" to="K5L5"/>
    <trip id="11h272" depart="39672.00" from="J5K5" to="G10G11"/>
    <trip id="11h273" depart="39672.00" from="B11B10" to="E1F1"/>
    <trip id="11h274" depart="39672.00" from="D11D10" to="C10C11"/>
    <trip id="11h275" depart="39672.00" from="D11D10" to="H1H0"/>
    <trip id="11h276" depart="39672.00" from="A5B5" to="J1J0"/>
    <trip id="11h277" depart="39672.00" from="K0K1" to="I2H2"/>
    <trip id="11h278" depart="39673.00" from="H11H10" to="B4A4"/>
    <trip id="11h279" depart="39673.00" from="L8K8" to="J1J0"/>
    <trip id="11h280" depart="39673.00" from="H11H10" to="K7L7"/>
    <trip id="11h281" depart="39673.00" from="D11D10" to="K1L1"/>
    <trip id="11h282" depart="39674.00" from="D11D10" to="B4A4"/>
    <trip id="11h283" depart="39674.00" from="L6K6" to="F1F0"/>
    <trip id="11h284" depart="39674.00" from="A5B5" to="B1B0"/>
    <trip id="11h285" depart="39674.00" from="L10K10" to="K3L3"/>
    <trip id="11h286" depart="39675.00" from="D10D9" to="K1L1"/>
    <trip id="11h287" depart="39675.00" from="D11D10" to="B4A4"/>
    <trip id="11h288" depart="39675.00" from="E1F1" to="E10E11"/>
    <trip id="11h289" depart="39675.00" from="E8E9" to="C10C11"/>
    <trip id="11h290" depart="39676.00" from="L10K10" to="F1F0"/>
    <trip id="11h291" depart="39676.00" from="L6K6" to="K9L9"/>
    <trip id="11h292" depart="39676.00" from="D11D10" to="G10G11"/>
    <trip id="11h293" depart="39676.00" from="B11B10" to="I10I11"/>
    <trip id="11h294" depart="39677.00" from="L2K2" to="K3L3"/>
    <trip id="11h295" depart="39677.00" from="K0K1" to="B8A8"/>
    <trip id="11h296" depart="39677.00" from="E1E2" to="K7L7"/>
    <trip id="11h297" depart="39677.00" from="F11F10" to="D1D0"/>
    <trip id="11h298" depart="39677.00" from="A3B3" to="G10G11"/>
    <trip id="11h299" depart="39677.00" from="L8K8" to="D1D0"/>
    <trip id="11h300" depart="39677.00" from="L6K6" to="K3L3"/>
    <trip id="11h301" depart="39678.00" from="C0C1" to="K3L3"/>
    <trip id="11h302" depart="39678.00" from="J11J10" to="F1F0"/>
    <trip id="11h303" depart="39678.00" from="A3B3" to="B8A8"/>
    <trip id="11h304" depart="39679.00" from="C0C1" to="C10C11"/>
    <trip id="11h305" depart="39679.00" from="E0E1" to="K1L1"/>
    <trip id="11h306" depart="39679.00" from="L4K4" to="H1H0"/>
    <trip id="11h307" depart="39679.00" from="G0G1" to="B8A8"/>
    <trip id="11h308" depart="39679.00" from="E0E1" to="I10I11"/>
    <trip id="11h309" depart="39679.00" from="E0E1" to="J10J9"/>
    <trip id="11h310" depart="39679.00" from="L8K8" to="B1B0"/>
    <trip id="11h311" depart="39680.00" from="F11F10" to="I10I11"/>
    <trip id="11h312" depart="39680.00" from="A1B1" to="K1L1"/>
    <trip id="11h313" depart="39680.00" from="K0K1" to="I10I11"/>
    <trip id="11h314" depart="39680.00" from="A1B1" to="G10G11"/>
    <trip id="11h315" depart="39681.00" from="L10K10" to="F1F0"/>
    <trip id="11h316" depart="39681.00" from="L10K10" to="F1F0"/>
    <trip id="11h317" depart="39681.00" from="A1B1" to="B6A6"/>
    <trip id="11h318" depart="39681.00" from="L6K6" to="G10G11"/>
    <trip id="11h319" depart="39681.00" from="K0K1" to="B6A6"/>
    <trip id="11h320" depart="39682.00" from="L10K10" to="K5L5"/>
    <trip id="11h321" depart="39682.00" from="A5B5" to="D1D0"/>
    <trip id="11h322" depart="39682.00" from="L8K8" to="F5G5"/>
    <trip id="11h323" depart="39683.00" from="H2H1" to="K3L3"/>
    <trip id="11h324" depart="39683.00" from="A3B3" to="I6I7"/>
    <trip id="11h325" depart="39683.00" from="H2H1" to="E10E11"/>
    <trip id="11h326" depart="39683.00" from="A1B1" to="K5L5"/>
    <trip id="11h327" depart="39683.00" from="L8K8" to="B8A8"/>
    <trip id="11h328" depart="39684.00" from="I0I1" to="D1D0"/>
    <trip id="11h329" depart="39684.00" from="H8G8" to="K1L1"/>
    <trip id="11h330" depart="39684.00" from="A3B3" to="K1L1"/>
    <trip id="11h331" depart="39684.00" from="D11D10" to="H1H0"/>
    <trip id="11h332" depart="39685.00" from="K0K1" to="H1H0"/>
    <trip id="11h333" depart="39685.00" from="I0I1" to="B8A8"/>
    <trip id="11h334" depart="39685.00" from="K0K1" to="F8F7"/>
    <trip id="11h335" depart="39685.00" from="H11H10" to="B8A8"/>
    <trip id="11h336" depart="39685.00" from="F10F9" to="K9L9"/>
    <trip id="11h337" depart="39685.00" from="L6K6" to="F1F0"/>
    <trip id="11h338" depart="39685.00" from="L2K2" to="F1F0"/>
    <trip id="11h339" depart="39686.00" from="J11J10" to="K3L3"/>
    <trip id="11h340" depart="39686.00" from="D11D10" to="B1B0"/>
    <trip id="11h341" depart="39687.00" from="A9B9" to="B2B1"/>
    <trip id="11h342" depart="39687.00" from="G9G10" to="D1D0"/>
    <trip id="11h343" depart="39687.00" from="C0C1" to="K9L9"/>
    <trip id="11h344" depart="39688.00" from="L8K8" to="I10I11"/>
    <trip id="11h345" depart="39688.00" from="L4K4" to="K1L1"/>
    <trip id="11h346" depart="39688.00" from="L8K8" to="E10E11"/>
    <trip id="11h347" depart="39688.00" from="A5B5" to="B4A4"/>
    <trip id="11h348" depart="39688.00" from="C0C1" to="J1J0"/>
    <trip id="11h349" depart="39689.00" from="L6K6" to="K5L5"/>
    <trip id="11h350" depart="39689.00" from="I0I1" to="G5H5"/>
    <trip id="11h351" depart="39689.00" from="C0C1" to="G10G11"/>
    <trip id="11h352" depart="39689.00" from="L6K6" to="B4A4"/>
    <trip id="11h353" depart="39690.00" from="A1B1" to="I10I11"/>
    <trip id="11h354" depart="39691.00" from="L8K8" to="F1F0"/>
    <trip id="11h355" depart="39691.00" from="A3B3" to="B1B0"/>
    <trip id="11h356" depart="39691.00" from="H7H6" to="C10C11"/>
    <trip id="11h357" depart="39692.00" from="D11D10" to="H1H0"/>
    <trip id="11h358" depart="39692.00" from="F11F10" to="B8A8"/>
    <trip id="11h359" depart="39692.00" from="A5B5" to="C10C11"/>
    <trip id="11h360" depart="39692.00" from="I0I1" to="B8A8"/>
    <trip id="11h361" depart="39692.00" from="C0C1" to="H1H0"/>
    <trip id="11h362" depart="39692.00" from="K0K1" to="F8E8"/>
    <trip id="11h363" depart="39693.00" from="A1B1" to="K7L7"/>
    <trip id="11h364" depart="39693.00" from="D11D10" to="B1B0"/>
    <trip id="11h365" depart="39694.00" from="E0E1" to="H1H0"/>
    <trip id="11h366" depart="39694.00" from="G8G9" to="B1B0"/>
    <trip id="11h367" depart="39694.00" from="L8K8" to="J1J0"/>
    <trip id="11h368" depart="39694.00" from="L8K8" to="E10E11"/>
    <trip id="11h369" depart="39695.00" from="L6K6" to="K10K11"/>
    <trip id="11h370" depart="39695.00" from="G0G1" to="G10F10"/>
    <trip id="11h371" depart="39695.00" from="A5B5" to="C6C7"/>
    <trip id="11h372" depart="39695.00" from="I0I1" to="B4A4"/>
    <trip id="11h373" depart="39696.00" from="D10C10" to="K3L3"/>
    <trip id="11h374" depart="39696.00" from="L10K10" to="D1D0"/>
    <trip id="11h375" depart="39697.00" from="F11F10" to="K9L9"/>
    <trip id="11h376" depart="39697.00" from="I0I1" to="I10I11"/>
    <trip id="11h377" depart="39697.00" from="J11J10" to="B10A10"/>
    <trip id="11h378" depart="39698.00" from="A1B1" to="C10C11"/>
    <trip id="11h379" depart="39698.00" from="J11J10" to="E10E11"/>
    <trip id="11h380" depart="39698.00" from="A7B7" to="B6A6"/>
    <trip id="11h381" depart="39698.00" from="I8H8" to="G10G11"/>
    <trip id="11h382" depart="39698.00" from="A7B7" to="K7L7"/>
    <trip id="11h383" depart="39699.00" from="D11D10" to="K1L1"/>
    <trip id="11h384" depart="39699.00" from="B11B10" to="H1H0"/>
    <trip id="11h385" depart="39699.00" from="L8K8" to="C10C11"/>
    <trip id="11h386" depart="39699.00" from="A9B9" to="J1J0"/>
    <trip id="11h387" depart="39699.00" from="D11D10" to="K7L7"/>
    <trip id="11h388" depart="39700.00" from="A5B5" to="J1J0"/>
    <trip id="11h389" depart="39700.00" from="L8K8" to="K3L3"/>
    <trip id="11h390" depart="39700.00" from="C0C1" to="J5J4"/>
    <trip id="11h391" depart="39700.00" from="E6E7" to="B8A8"/>
    <trip id="11h392" depart="39700.00" from="G0G1" to="K7L7"/>
    <trip id="11h393" depart="39700.00" from="I0I1" to="H1H0"/>
    <trip id="11h394" depart="39701.00" from="J11J10" to="G10G11"/>
    <trip id="11h395" depart="39701.00" from="E0E1" to="J8J7"/>
    <trip id="11h396" depart="39701.00" from="L10K10" to="B10A10"/>
    <trip id="11h397" depart="39701.00" from="L6K6" to="K5L5"/>
    <trip id="11h398" depart="39701.00" from="L8K8" to="C10C11"/>
    <trip id="11h399" depart="39702.00" from="H11H10" to="G10G11"/>
    <trip id="11h400" depart="39702.00" from="L4K4" to="B4A4"/>
    <trip id="11h401" depart="39702.00" from="F4F3" to="K7L7"/>
    <trip id="11h402" depart="39703.00" from="H11H10" to="B2A2"/>
    <trip id="11h403" depart="39703.00" from="L8K8" to="G10G11"/>
    <trip id="11h404" depart="39703.00" from="A5B5" to="B4A4"/>
    <trip id="11h405" depart="39704.00" from="A9B9" to="K10K11"/>
    <trip id="11h406" depart="39704.00" from="L2K2" to="K5L5"/>
    <trip id="11h407" depart="39704.00" from="J11J10" to="B4A4"/>
    <trip id="11h408" depart="39704.00" from="C0C1" to="B8A8"/>
    <trip id="11h409" depart="39705.00" from="B11B10" to="K10K11"/>
    <trip id="11h410" depart="39705.00" from="K0K1" to="B10A10"/>
    <trip id="11h411" depart="39705.00" from="A5B5" to="C10C11"/>
    <trip id="11h412" depart="39705.00" from="G0G1" to="K5L5"/>
    <trip id="11h413" depart="39705.00" from="A5B5" to="K7L7"/>
    <trip id="11h414" depart="39705.00" from="I0I1" to="B6A6"/>
    <trip id="11h415" depart="39706.00" from="A7B7" to="K10K11"/>
    <trip id="11h416" depart="39706.00" from="B11B10" to="K10K11"/>
    <trip id="11h417" depart="39706.00" from="F11F10" to="J1J0"/>
    <trip id="11h418" depart="39707.00" from="H11H10" to="B1B0"/>
    <trip id="11h419" depart="39707.00" from="C1C2" to="G10G11"/>
    <trip id="11h420" depart="39707.00" from="A9B9" to="H1H0"/>
    <trip id="11h421" depart="39707.00" from="G0G1" to="K1L1"/>
    <trip id="11h422" depart="39708.00" from="F11F10" to="K1L1"/>
    <trip id="11h423" depart="39708.00" from="L10K10" to="K10K11"/>
    <trip id="11h424" depart="39708.00" from="D11D10" to="B1B0"/>
    <trip id="11h425" depart="39708.00" from="L6K6" to="B10A10"/>
    <trip id="11h426" depart="39708.00" from="K7K8" to="K1L1"/>
    <trip id="11h427" depart="39709.00" from="L4K4" to="K7K8"/>
    <trip id="11h428" depart="39709.00" from="J11J10" to="I7J7"/>
    <trip id="11h429" depart="39709.00" from="A7B7" to="G10G11"/>
    <trip id="11h430" depart="39710.00" from="A1B1" to="B10A10"/>
    <trip id="11h431" depart="39710.00" from="J11J10" to="G10G11"/>
    <trip id="11h432" depart="39710.00" from="D11D10" to="B8A8"/>
    <trip id="11h433" depart="39710.00" from="L10K10" to="E10E11"/>
    <trip id="11h434" depart="39711.00" from="A9B9" to="B2A2"/>
    <trip id="11h435" depart="39711.00" from="H11H10" to="J1J0"/>
    <trip id="11h436" depart="39711.00" from="K0K1" to="E10E11"/>
    <trip id="11h437" depart="39711.00" from="A9B9" to="K5L5"/>
    <trip id="11h438" depart="39711.00" from="G0G1" to="C10C11"/>
    <trip id="11h439" depart="39711.00" from="H11H10" to="J1J0"/>
    <trip id="11h440" depart="39711.00" from="C0C1" to="B4A4"/>
    <trip id="11h441" depart="39712.00" from="C0C1" to="B1B0"/>
    <trip id="11h442" depart="39713.00" from="E0E1" to="B4A4"/>
    <trip id="11h443" depart="39713.00" from="K0K1" to="F1F0"/>
    <trip id="11h444" depart="39713.00" from="J11J10" to="K1L1"/>
    <trip id="11h445" depart="39713.00" from="B11B10" to="B6A6"/>
    <trip id="11h446" depart="39714.00" from="K0K1" to="B6A6"/>
    <trip id="11h447" depart="39714.00" from="J11J10" to="H3H2"/>
    <trip id="11h448" depart="39714.00" from="K0K1" to="K10K11"/>
    <trip id="11h449" depart="39715.00" from="L8K8" to="B10A10"/>
    <trip id="11h450" depart="39715.00" from="L8K8" to="F1F0"/>
    <trip id="11h451" depart="39715.00" from="H4H3" to="B6A6"/>
    <trip id="11h452" depart="39715.00" from="G0G1" to="D1D0"/>
    <trip id="11h453" depart="39715.00" from="G0G1" to="F7F6"/>