<?xml version="1.0" encoding="UTF-8"?>
<!-- generated on 2020-12-09 02:55:03.676426 by randomTrips.py v1_7_0+0000-714814baed
  options: -n .\data/grid01-bcn_06.net.xml <doubleminus>prefix=6h <doubleminus>fringe-factor 100 -b 21600 -e 25200 -p0.3155680224403927 <doubleminus>binomial 10 -odata/random/random_h_6-bcn_06.trips.rou.xml <doubleminus>edge-permission=passenger
-->
<routes xmlns:xsi="http://www.w3.org/2001/XMLSchema-instance" xsi:noNamespaceSchemaLocation="http://sumo.dlr.de/xsd/routes_file.xsd">
    <trip id="6h0" depart="21600.00" from="B11B10" to="B6A6"/>
    <trip id="6h1" depart="21600.00" from="E0E1" to="B10A10"/>
    <trip id="6h2" depart="21600.00" from="G0G1" to="B10A10"/>
    <trip id="6h3" depart="21600.00" from="I0I1" to="G10G11"/>
    <trip id="6h4" depart="21600.00" from="H11H10" to="K1L1"/>
    <trip id="6h5" depart="21600.00" from="L10K10" to="J1J0"/>
    <trip id="6h6" depart="21601.00" from="L8K8" to="D10C10"/>
    <trip id="6h7" depart="21601.00" from="A5B5" to="K3L3"/>
    <trip id="6h8" depart="21602.00" from="A9B9" to="C10C11"/>
    <trip id="6h9" depart="21602.00" from="B11B10" to="B2A2"/>
    <trip id="6h10" depart="21602.00" from="I0I1" to="D1D0"/>
    <trip id="6h11" depart="21602.00" from="B11B10" to="K7L7"/>
    <trip id="6h12" depart="21603.00" from="K0K1" to="B4A4"/>
    <trip id="6h13" depart="21604.00" from="A1B1" to="C10C11"/>
    <trip id="6h14" depart="21604.00" from="A9B9" to="K7L7"/>
    <trip id="6h15" depart="21604.00" from="I10H10" to="E10E11"/>
    <trip id="6h16" depart="21604.00" from="B11B10" to="H1H0"/>
    <trip id="6h17" depart="21604.00" from="H11H10" to="K5L5"/>
    <trip id="6h18" depart="21604.00" from="L8K8" to="G10G11"/>
    <trip id="6h19" depart="21605.00" from="A3B3" to="B2A2"/>
    <trip id="6h20" depart="21605.00" from="D11D10" to="K9L9"/>
    <trip id="6h21" depart="21605.00" from="K0K1" to="J1J0"/>
    <trip id="6h22" depart="21606.00" from="I0I1" to="B2A2"/>
    <trip id="6h23" depart="21606.00" from="G0G1" to="B4A4"/>
    <trip id="6h24" depart="21606.00" from="I0I1" to="H9I9"/>
    <trip id="6h25" depart="21606.00" from="K0K1" to="G10G11"/>
    <trip id="6h26" depart="21607.00" from="C0C1" to="B10A10"/>
    <trip id="6h27" depart="21607.00" from="A3B3" to="K5L5"/>
    <trip id="6h28" depart="21607.00" from="F11F10" to="B1B0"/>
    <trip id="6h29" depart="21608.00" from="F11F10" to="G4G5"/>
    <trip id="6h30" depart="21608.00" from="L4K4" to="E10E11"/>
    <trip id="6h31" depart="21608.00" from="G0G1" to="K10K11"/>
    <trip id="6h32" depart="21608.00" from="C0C1" to="K9L9"/>
    <trip id="6h33" depart="21608.00" from="A9B9" to="D1D0"/>
    <trip id="6h34" depart="21609.00" from="A9B9" to="B1B0"/>
    <trip id="6h35" depart="21609.00" from="L4K4" to="K5L5"/>
    <trip id="6h36" depart="21609.00" from="B11B10" to="J1J0"/>
    <trip id="6h37" depart="21609.00" from="A5B5" to="K7L7"/>
    <trip id="6h38" depart="21609.00" from="A5B5" to="E10E11"/>
    <trip id="6h39" depart="21610.00" from="E0E1" to="D1D0"/>
    <trip id="6h40" depart="21610.00" from="A9B9" to="F1F0"/>
    <trip id="6h41" depart="21610.00" from="B11B10" to="K7L7"/>
    <trip id="6h42" depart="21611.00" from="L8K8" to="K3L3"/>
    <trip id="6h43" depart="21611.00" from="F11F10" to="B6A6"/>
    <trip id="6h44" depart="21611.00" from="D11D10" to="K9L9"/>
    <trip id="6h45" depart="21612.00" from="L10K10" to="F1F0"/>
    <trip id="6h46" depart="21612.00" from="C0C1" to="K9L9"/>
    <trip id="6h47" depart="21613.00" from="H11H10" to="G10G11"/>
    <trip id="6h48" depart="21613.00" from="L8K8" to="B1B0"/>
    <trip id="6h49" depart="21613.00" from="H11H10" to="J1J0"/>
    <trip id="6h50" depart="21613.00" from="A5B5" to="K5L5"/>
    <trip id="6h51" depart="21613.00" from="H11H10" to="I10I11"/>
    <trip id="6h52" depart="21614.00" from="J7K7" to="B8A8"/>
    <trip id="6h53" depart="21614.00" from="C0C1" to="K10K11"/>
    <trip id="6h54" depart="21614.00" from="F11F10" to="K9L9"/>
    <trip id="6h55" depart="21614.00" from="A9B9" to="B8A8"/>
    <trip id="6h56" depart="21615.00" from="L2K2" to="J1J0"/>
    <trip id="6h57" depart="21615.00" from="L2K2" to="C10C11"/>
    <trip id="6h58" depart="21615.00" from="A5B5" to="B2A2"/>
    <trip id="6h59" depart="21616.00" from="H5H4" to="J9J8"/>
    <trip id="6h60" depart="21616.00" from="I0I1" to="B8A8"/>
    <trip id="6h61" depart="21616.00" from="E0E1" to="B8A8"/>
    <trip id="6h62" depart="21616.00" from="L10K10" to="I10I11"/>
    <trip id="6h63" depart="21616.00" from="K0K1" to="G6G7"/>
    <trip id="6h64" depart="21616.00" from="A3B3" to="K5L5"/>
    <trip id="6h65" depart="21617.00" from="A5B5" to="C10C11"/>
    <trip id="6h66" depart="21617.00" from="B11B10" to="B2A2"/>
    <trip id="6h67" depart="21618.00" from="L6K6" to="K5L5"/>
    <trip id="6h68" depart="21618.00" from="K0K1" to="C5D5"/>
    <trip id="6h69" depart="21619.00" from="L10K10" to="B2A2"/>
    <trip id="6h70" depart="21619.00" from="L2K2" to="F1F0"/>
    <trip id="6h71" depart="21619.00" from="L10K10" to="B6A6"/>
    <trip id="6h72" depart="21619.00" from="A9B9" to="C1C2"/>
    <trip id="6h73" depart="21620.00" from="I0I1" to="E10E11"/>
    <trip id="6h74" depart="21620.00" from="L8K8" to="B4A4"/>
    <trip id="6h75" depart="21620.00" from="A5B5" to="E10E11"/>
    <trip id="6h76" depart="21620.00" from="H6H5" to="G10G11"/>
    <trip id="6h77" depart="21621.00" from="J11J10" to="B10A10"/>
    <trip id="6h78" depart="21621.00" from="J10J9" to="C3C4"/>
    <trip id="6h79" depart="21622.00" from="L2K2" to="K10K11"/>
    <trip id="6h80" depart="21622.00" from="C0C1" to="E10E11"/>
    <trip id="6h81" depart="21622.00" from="A5B5" to="E10E11"/>
    <trip id="6h82" depart="21622.00" from="G2G3" to="B10A10"/>
    <trip id="6h83" depart="21622.00" from="E0E1" to="H1H0"/>
    <trip id="6h84" depart="21623.00" from="F11F10" to="K5L5"/>
    <trip id="6h85" depart="21623.00" from="A3B3" to="G10G11"/>
    <trip id="6h86" depart="21624.00" from="A9B9" to="B10A10"/>
    <trip id="6h87" depart="21624.00" from="F11F10" to="K3L3"/>
    <trip id="6h88" depart="21624.00" from="E0E1" to="I10I11"/>
    <trip id="6h89" depart="21624.00" from="J11J10" to="F3G3"/>
    <trip id="6h90" depart="21624.00" from="I1J1" to="B10A10"/>
    <trip id="6h91" depart="21624.00" from="E0E1" to="B4A4"/>
    <trip id="6h92" depart="21625.00" from="B11B10" to="K3L3"/>
    <trip id="6h93" depart="21626.00" from="B11B10" to="I10I11"/>
    <trip id="6h94" depart="21627.00" from="A3B3" to="C10C11"/>
    <trip id="6h95" depart="21627.00" from="C0C1" to="G10G11"/>
    <trip id="6h96" depart="21627.00" from="B11B10" to="J1J0"/>
    <trip id="6h97" depart="21627.00" from="E0E1" to="G10G11"/>
    <trip id="6h98" depart="21627.00" from="E0E1" to="K5L5"/>
    <trip id="6h99" depart="21628.00" from="D11D10" to="K10K11"/>
    <trip id="6h100" depart="21629.00" from="A9B9" to="E10E11"/>
    <trip id="6h101" depart="21629.00" from="C9D9" to="J1J0"/>
    <trip id="6h102" depart="21629.00" from="F11F10" to="B2A2"/>
    <trip id="6h103" depart="21629.00" from="E0E1" to="H1H0"/>
    <trip id="6h104" depart="21629.00" from="I0I1" to="B2A2"/>
    <trip id="6h105" depart="21629.00" from="D11D10" to="B6A6"/>
    <trip id="6h106" depart="21630.00" from="A3B3" to="B10A10"/>
    <trip id="6h107" depart="21631.00" from="A1B1" to="B4A4"/>
    <trip id="6h108" depart="21631.00" from="J11J10" to="H1H0"/>
    <trip id="6h109" depart="21631.00" from="J11J10" to="K1L1"/>
    <trip id="6h110" depart="21631.00" from="H7I7" to="K10K11"/>
    <trip id="6h111" depart="21631.00" from="L2K2" to="K9L9"/>
    <trip id="6h112" depart="21631.00" from="A1B1" to="C10C11"/>
    <trip id="6h113" depart="21632.00" from="J11J10" to="I10I11"/>
    <trip id="6h114" depart="21632.00" from="L10K10" to="K3L3"/>
    <trip id="6h115" depart="21632.00" from="L8K8" to="K1L1"/>
    <trip id="6h116" depart="21633.00" from="L8K8" to="I10I11"/>
    <trip id="6h117" depart="21634.00" from="L10K10" to="G10G11"/>
    <trip id="6h118" depart="21634.00" from="L2K2" to="K3L3"/>
    <trip id="6h119" depart="21634.00" from="L4K4" to="B8A8"/>
    <trip id="6h120" depart="21634.00" from="L2K2" to="B4A4"/>
    <trip id="6h121" depart="21635.00" from="L10K10" to="D1D0"/>
    <trip id="6h122" depart="21635.00" from="A1B1" to="K7L7"/>
    <trip id="6h123" depart="21635.00" from="K0K1" to="F1F0"/>
    <trip id="6h124" depart="21636.00" from="A9B9" to="J1J0"/>
    <trip id="6h125" depart="21636.00" from="H11H10" to="F1F0"/>
    <trip id="6h126" depart="21636.00" from="B11B10" to="B2A2"/>
    <trip id="6h127" depart="21636.00" from="A5B5" to="G10G11"/>
    <trip id="6h128" depart="21637.00" from="A9B9" to="F1F0"/>
    <trip id="6h129" depart="21637.00" from="A5B5" to="B6A6"/>
    <trip id="6h130" depart="21637.00" from="A7B7" to="B10A10"/>
    <trip id="6h131" depart="21637.00" from="L8K8" to="G8G9"/>
    <trip id="6h132" depart="21637.00" from="L4K4" to="F1F0"/>
    <trip id="6h133" depart="21638.00" from="A3B3" to="K7L7"/>
    <trip id="6h134" depart="21638.00" from="I0I1" to="B1B0"/>
    <trip id="6h135" depart="21638.00" from="H11H10" to="C10C11"/>
    <trip id="6h136" depart="21639.00" from="K10J10" to="H6H5"/>
    <trip id="6h137" depart="21639.00" from="G0G1" to="F1F0"/>
    <trip id="6h138" depart="21639.00" from="I0I1" to="I10H10"/>
    <trip id="6h139" depart="21640.00" from="A9B9" to="I6H6"/>
    <trip id="6h140" depart="21640.00" from="A7B7" to="B1B0"/>
    <trip id="6h141" depart="21640.00" from="F11F10" to="H1H0"/>
    <trip id="6h142" depart="21640.00" from="B11B10" to="J1J0"/>
    <trip id="6h143" depart="21641.00" from="A7B7" to="C10C11"/>
    <trip id="6h144" depart="21642.00" from="A5B5" to="J1J0"/>
    <trip id="6h145" depart="21642.00" from="A1B1" to="E10E11"/>
    <trip id="6h146" depart="21642.00" from="A3B3" to="K9L9"/>
    <trip id="6h147" depart="21643.00" from="A1B1" to="K10K11"/>
    <trip id="6h148" depart="21643.00" from="H11H10" to="I10I11"/>
    <trip id="6h149" depart="21643.00" from="D11D10" to="C6C7"/>
    <trip id="6h150" depart="21644.00" from="L6K6" to="K3L3"/>
    <trip id="6h151" depart="21644.00" from="C0C1" to="K9L9"/>
    <trip id="6h152" depart="21645.00" from="D11D10" to="K10K11"/>
    <trip id="6h153" depart="21645.00" from="G4F4" to="K7L7"/>
    <trip id="6h154" depart="21646.00" from="L8K8" to="H9I9"/>
    <trip id="6h155" depart="21646.00" from="A7B7" to="G5H5"/>
    <trip id="6h156" depart="21646.00" from="L8K8" to="K7L7"/>
    <trip id="6h157" depart="21646.00" from="L2K2" to="F8E8"/>
    <trip id="6h158" depart="21646.00" from="L2K2" to="K9L9"/>
    <trip id="6h159" depart="21646.00" from="G6F6" to="D2C2"/>
    <trip id="6h160" depart="21647.00" from="L10K10" to="E10E11"/>
    <trip id="6h161" depart="21647.00" from="C0C1" to="H1H0"/>
    <trip id="6h162" depart="21648.00" from="G0G1" to="D1D0"/>
    <trip id="6h163" depart="21648.00" from="J11J10" to="H1H0"/>
    <trip id="6h164" depart="21648.00" from="L10K10" to="B10A10"/>
    <trip id="6h165" depart="21649.00" from="G0G1" to="H1H0"/>
    <trip id="6h166" depart="21650.00" from="F11F10" to="K9L9"/>
    <trip id="6h167" depart="21651.00" from="K0K1" to="K10K11"/>
    <trip id="6h168" depart="21651.00" from="A3B3" to="I10I11"/>
    <trip id="6h169" depart="21652.00" from="I0I1" to="K5L5"/>
    <trip id="6h170" depart="21652.00" from="L10K10" to="C10C11"/>
    <trip id="6h171" depart="21652.00" from="G0G1" to="H1H0"/>
    <trip id="6h172" depart="21652.00" from="A3B3" to="K5L5"/>
    <trip id="6h173" depart="21653.00" from="L6K6" to="B4A4"/>
    <trip id="6h174" depart="21653.00" from="B11B10" to="B10A10"/>
    <trip id="6h175" depart="21653.00" from="E5F5" to="D1D0"/>
    <trip id="6h176" depart="21654.00" from="L2K2" to="B6A6"/>
    <trip id="6h177" depart="21654.00" from="H11H10" to="H1H0"/>
    <trip id="6h178" depart="21654.00" from="L8K8" to="I3J3"/>
    <trip id="6h179" depart="21654.00" from="H11H10" to="J1J0"/>
    <trip id="6h180" depart="21654.00" from="H6H5" to="F6E6"/>
    <trip id="6h181" depart="21655.00" from="L10K10" to="H7I7"/>
    <trip id="6h182" depart="21656.00" from="E4E5" to="H1H0"/>
    <trip id="6h183" depart="21656.00" from="C0C1" to="K10K11"/>
    <trip id="6h184" depart="21656.00" from="A5B5" to="G10G11"/>
    <trip id="6h185" depart="21656.00" from="L2K2" to="F1F0"/>
    <trip id="6h186" depart="21657.00" from="L8K8" to="B4A4"/>
    <trip id="6h187" depart="21658.00" from="G0G1" to="F1F0"/>
    <trip id="6h188" depart="21658.00" from="B11B10" to="B10A10"/>
    <trip id="6h189" depart="21659.00" from="A3B3" to="K3L3"/>
    <trip id="6h190" depart="21659.00" from="E0E1" to="B3C3"/>
    <trip id="6h191" depart="21659.00" from="F1G1" to="B2A2"/>
    <trip id="6h192" depart="21659.00" from="F11F10" to="J1J0"/>
    <trip id="6h193" depart="21660.00" from="E0E1" to="B2A2"/>
    <trip id="6h194" depart="21660.00" from="D11D10" to="E7F7"/>
    <trip id="6h195" depart="21661.00" from="J11J10" to="G10G11"/>
    <trip id="6h196" depart="21661.00" from="A5B5" to="K3L3"/>
    <trip id="6h197" depart="21661.00" from="L10K10" to="B8A8"/>
    <trip id="6h198" depart="21662.00" from="H11H10" to="B1B0"/>
    <trip id="6h199" depart="21662.00" from="A9B9" to="K5L5"/>
    <trip id="6h200" depart="21662.00" from="L4K4" to="B10A10"/>
    <trip id="6h201" depart="21662.00" from="A5B5" to="B8A8"/>
    <trip id="6h202" depart="21662.00" from="I7I8" to="B10A10"/>
    <trip id="6h203" depart="21662.00" from="L10K10" to="B8A8"/>
    <trip id="6h204" depart="21663.00" from="A3B3" to="K10K11"/>
    <trip id="6h205" depart="21663.00" from="G0G1" to="K7L7"/>
    <trip id="6h206" depart="21663.00" from="L10K10" to="K5L5"/>
    <trip id="6h207" depart="21664.00" from="F11F10" to="E10E11"/>
    <trip id="6h208" depart="21664.00" from="A3B3" to="H9H8"/>
    <trip id="6h209" depart="21664.00" from="B11B10" to="I10I11"/>
    <trip id="6h210" depart="21665.00" from="J11J10" to="K3L3"/>
    <trip id="6h211" depart="21665.00" from="F11F10" to="B6A6"/>
    <trip id="6h212" depart="21666.00" from="E0E1" to="J1J0"/>
    <trip id="6h213" depart="21666.00" from="L6K6" to="B1B0"/>
    <trip id="6h214" depart="21666.00" from="A5B5" to="K10K11"/>
    <trip id="6h215" depart="21667.00" from="D11D10" to="J1J0"/>
    <trip id="6h216" depart="21667.00" from="I2H2" to="B6A6"/>
    <trip id="6h217" depart="21668.00" from="L2K2" to="D1D0"/>
    <trip id="6h218" depart="21668.00" from="L6K6" to="K3L3"/>
    <trip id="6h219" depart="21669.00" from="A7B7" to="J1J0"/>
    <trip id="6h220" depart="21669.00" from="D11D10" to="B10A10"/>
    <trip id="6h221" depart="21669.00" from="I0I1" to="B10A10"/>
    <trip id="6h222" depart="21669.00" from="E0E1" to="D1D0"/>
    <trip id="6h223" depart="21670.00" from="A3B3" to="B4A4"/>
    <trip id="6h224" depart="21670.00" from="I8H8" to="F1F0"/>
    <trip id="6h225" depart="21670.00" from="K0K1" to="B2A2"/>
    <trip id="6h226" depart="21670.00" from="J11J10" to="F1F0"/>
    <trip id="6h227" depart="21671.00" from="E0E1" to="H1H0"/>
    <trip id="6h228" depart="21671.00" from="C0C1" to="B6A6"/>
    <trip id="6h229" depart="21671.00" from="B11B10" to="C1C2"/>
    <trip id="6h230" depart="21671.00" from="K0K1" to="B4A4"/>
    <trip id="6h231" depart="21672.00" from="L2K2" to="B10A10"/>
    <trip id="6h232" depart="21672.00" from="L6K6" to="K5L5"/>
    <trip id="6h233" depart="21672.00" from="A1B1" to="C10C11"/>
    <trip id="6h234" depart="21673.00" from="L2K2" to="B8A8"/>
    <trip id="6h235" depart="21673.00" from="D11D10" to="C6C7"/>
    <trip id="6h236" depart="21673.00" from="G0G1" to="B2A2"/>
    <trip id="6h237" depart="21674.00" from="A7B7" to="B6A6"/>
    <trip id="6h238" depart="21674.00" from="L10K10" to="F3G3"/>
    <trip id="6h239" depart="21675.00" from="A3B3" to="E6E7"/>
    <trip id="6h240" depart="21675.00" from="B11B10" to="B1B0"/>
    <trip id="6h241" depart="21676.00" from="F11F10" to="B1B0"/>
    <trip id="6h242" depart="21676.00" from="L4K4" to="K3L3"/>
    <trip id="6h243" depart="21677.00" from="A3B3" to="B2A2"/>
    <trip id="6h244" depart="21677.00" from="B11B10" to="E1F1"/>
    <trip id="6h245" depart="21678.00" from="D11D10" to="C10C11"/>
    <trip id="6h246" depart="21678.00" from="A5B5" to="J1J0"/>
    <trip id="6h247" depart="21678.00" from="K0K1" to="I2H2"/>
    <trip id="6h248" depart="21679.00" from="D11D10" to="K9L9"/>
    <trip id="6h249" depart="21679.00" from="D11D10" to="K1L1"/>
    <trip id="6h250" depart="21681.00" from="A9B9" to="K7L7"/>
    <trip id="6h251" depart="21681.00" from="A5B5" to="B1B0"/>
    <trip id="6h252" depart="21681.00" from="L10K10" to="K3L3"/>
    <trip id="6h253" depart="21681.00" from="D10D9" to="K1L1"/>
    <trip id="6h254" depart="21681.00" from="D11D10" to="B4A4"/>
    <trip id="6h255" depart="21682.00" from="E1F1" to="E10E11"/>
    <trip id="6h256" depart="21682.00" from="E8E9" to="C10C11"/>
    <trip id="6h257" depart="21682.00" from="L10K10" to="F1F0"/>
    <trip id="6h258" depart="21683.00" from="D11D10" to="G10G11"/>
    <trip id="6h259" depart="21683.00" from="B11B10" to="I10I11"/>
    <trip id="6h260" depart="21684.00" from="L2K2" to="K3L3"/>
    <trip id="6h261" depart="21684.00" from="K0K1" to="B8A8"/>
    <trip id="6h262" depart="21684.00" from="E1E2" to="K7L7"/>
    <trip id="6h263" depart="21684.00" from="F11F10" to="D1D0"/>
    <trip id="6h264" depart="21684.00" from="A3B3" to="G10G11"/>
    <trip id="6h265" depart="21684.00" from="L8K8" to="D1D0"/>
    <trip id="6h266" depart="21684.00" from="L6K6" to="K3L3"/>
    <trip id="6h267" depart="21685.00" from="C0C1" to="K3L3"/>
    <trip id="6h268" depart="21685.00" from="J11J10" to="F1F0"/>
    <trip id="6h269" depart="21685.00" from="A3B3" to="B8A8"/>
    <trip id="6h270" depart="21685.00" from="C0C1" to="C10C11"/>
    <trip id="6h271" depart="21685.00" from="E0E1" to="K1L1"/>
    <trip id="6h272" depart="21686.00" from="L4K4" to="H1H0"/>
    <trip id="6h273" depart="21686.00" from="G0G1" to="B8A8"/>
    <trip id="6h274" depart="21686.00" from="E0E1" to="I10I11"/>
    <trip id="6h275" depart="21686.00" from="E0E1" to="J10J9"/>
    <trip id="6h276" depart="21686.00" from="L8K8" to="B1B0"/>
    <trip id="6h277" depart="21687.00" from="A1B1" to="K1L1"/>
    <trip id="6h278" depart="21688.00" from="G10F10" to="K3L3"/>
    <trip id="6h279" depart="21688.00" from="L10K10" to="F1F0"/>
    <trip id="6h280" depart="21688.00" from="L10K10" to="F1F0"/>
    <trip id="6h281" depart="21688.00" from="A1B1" to="B6A6"/>
    <trip id="6h282" depart="21688.00" from="L6K6" to="G10G11"/>
    <trip id="6h283" depart="21689.00" from="K0K1" to="B6A6"/>
    <trip id="6h284" depart="21689.00" from="D11D10" to="K5L5"/>
    <trip id="6h285" depart="21690.00" from="H2H1" to="K3L3"/>
    <trip id="6h286" depart="21691.00" from="I6I7" to="C10C11"/>
    <trip id="6h287" depart="21691.00" from="L4K4" to="D1D0"/>
    <trip id="6h288" depart="21691.00" from="L8K8" to="K7L7"/>
    <trip id="6h289" depart="21691.00" from="I0I1" to="D1D0"/>
    <trip id="6h290" depart="21692.00" from="H8G8" to="K1L1"/>
    <trip id="6h291" depart="21692.00" from="A3B3" to="K1L1"/>
    <trip id="6h292" depart="21693.00" from="A5B5" to="K10K11"/>
    <trip id="6h293" depart="21694.00" from="B11B10" to="F10F9"/>
    <trip id="6h294" depart="21694.00" from="L6K6" to="F1F0"/>
    <trip id="6h295" depart="21694.00" from="L2K2" to="F1F0"/>
    <trip id="6h296" depart="21694.00" from="J11J10" to="K3L3"/>
    <trip id="6h297" depart="21694.00" from="G0G1" to="K5L5"/>
    <trip id="6h298" depart="21695.00" from="A9B9" to="B2B1"/>
    <trip id="6h299" depart="21695.00" from="G9G10" to="D1D0"/>
    <trip id="6h300" depart="21696.00" from="C0C1" to="K9L9"/>
    <trip id="6h301" depart="21696.00" from="L8K8" to="I10I11"/>
    <trip id="6h302" depart="21697.00" from="L8K8" to="E10E11"/>
    <trip id="6h303" depart="21697.00" from="A5B5" to="B4A4"/>
    <trip id="6h304" depart="21697.00" from="C0C1" to="J1J0"/>
    <trip id="6h305" depart="21698.00" from="I0I1" to="G5H5"/>
    <trip id="6h306" depart="21698.00" from="C0C1" to="G10G11"/>
    <trip id="6h307" depart="21698.00" from="L6K6" to="B4A4"/>
    <trip id="6h308" depart="21699.00" from="A1B1" to="I10I11"/>
    <trip id="6h309" depart="21700.00" from="L8K8" to="F1F0"/>
    <trip id="6h310" depart="21700.00" from="A3B3" to="B1B0"/>
    <trip id="6h311" depart="21700.00" from="H7H6" to="C10C11"/>
    <trip id="6h312" depart="21701.00" from="D11D10" to="H1H0"/>
    <trip id="6h313" depart="21701.00" from="B11B10" to="B2A2"/>
    <trip id="6h314" depart="21701.00" from="D2D1" to="I10I11"/>
    <trip id="6h315" depart="21701.00" from="L4K4" to="B4A4"/>
    <trip id="6h316" depart="21701.00" from="K0K1" to="F8E8"/>
    <trip id="6h317" depart="21702.00" from="A1B1" to="K7L7"/>
    <trip id="6h318" depart="21702.00" from="D11D10" to="B1B0"/>
    <trip id="6h319" depart="21703.00" from="G8G9" to="B1B0"/>
    <trip id="6h320" depart="21704.00" from="L8K8" to="J1J0"/>
    <trip id="6h321" depart="21704.00" from="L8K8" to="E10E11"/>
    <trip id="6h322" depart="21704.00" from="G0G1" to="G10F10"/>
    <trip id="6h323" depart="21704.00" from="A5B5" to="C6C7"/>
    <trip id="6h324" depart="21705.00" from="L8K8" to="K10K11"/>
    <trip id="6h325" depart="21705.00" from="D10C10" to="K3L3"/>
    <trip id="6h326" depart="21706.00" from="L10K10" to="D1D0"/>
    <trip id="6h327" depart="21706.00" from="F11F10" to="K9L9"/>
    <trip id="6h328" depart="21707.00" from="I0I1" to="I10I11"/>
    <trip id="6h329" depart="21707.00" from="J11J10" to="B10A10"/>
    <trip id="6h330" depart="21707.00" from="A1B1" to="C10C11"/>
    <trip id="6h331" depart="21707.00" from="J11J10" to="E10E11"/>
    <trip id="6h332" depart="21708.00" from="A7B7" to="B6A6"/>
    <trip id="6h333" depart="21708.00" from="A7B7" to="K7L7"/>
    <trip id="6h334" depart="21709.00" from="B11B10" to="H1H0"/>
    <trip id="6h335" depart="21709.00" from="L8K8" to="C10C11"/>
    <trip id="6h336" depart="21709.00" from="A9B9" to="J1J0"/>
    <trip id="6h337" depart="21710.00" from="A5B5" to="J1J0"/>
    <trip id="6h338" depart="21710.00" from="C0C1" to="J5J4"/>
    <trip id="6h339" depart="21711.00" from="F11F10" to="B6A6"/>
    <trip id="6h340" depart="21711.00" from="I0I1" to="H1H0"/>
    <trip id="6h341" depart="21711.00" from="J11J10" to="G10G11"/>
    <trip id="6h342" depart="21711.00" from="E0E1" to="J8J7"/>
    <trip id="6h343" depart="21711.00" from="L10K10" to="B10A10"/>
    <trip id="6h344" depart="21712.00" from="L8K8" to="C10C11"/>
    <trip id="6h345" depart="21712.00" from="H11H10" to="G10G11"/>
    <trip id="6h346" depart="21713.00" from="L4K4" to="B4A4"/>
    <trip id="6h347" depart="21714.00" from="H11H10" to="B2A2"/>
    <trip id="6h348" depart="21714.00" from="L8K8" to="G10G11"/>
    <trip id="6h349" depart="21714.00" from="A5B5" to="B4A4"/>
    <trip id="6h350" depart="21715.00" from="A9B9" to="K10K11"/>
    <trip id="6h351" depart="21715.00" from="L2K2" to="K5L5"/>
    <trip id="6h352" depart="21715.00" from="J11J10" to="B4A4"/>
    <trip id="6h353" depart="21715.00" from="C0C1" to="B8A8"/>
    <trip id="6h354" depart="21716.00" from="B11B10" to="K10K11"/>
    <trip id="6h355" depart="21716.00" from="K0K1" to="B10A10"/>
    <trip id="6h356" depart="21716.00" from="A5B5" to="C10C11"/>
    <trip id="6h357" depart="21717.00" from="A5B5" to="K7L7"/>
    <trip id="6h358" depart="21717.00" from="I0I1" to="B6A6"/>
    <trip id="6h359" depart="21717.00" from="A7B7" to="K10K11"/>
    <trip id="6h360" depart="21717.00" from="B11B10" to="K10K11"/>
    <trip id="6h361" depart="21718.00" from="F11F10" to="J1J0"/>
    <trip id="6h362" depart="21718.00" from="H11H10" to="B1B0"/>
    <trip id="6h363" depart="21718.00" from="C1C2" to="G10G11"/>
    <trip id="6h364" depart="21718.00" from="A9B9" to="H1H0"/>
    <trip id="6h365" depart="21718.00" from="G0G1" to="K1L1"/>
    <trip id="6h366" depart="21719.00" from="F11F10" to="K1L1"/>
    <trip id="6h367" depart="21719.00" from="D11D10" to="B1B0"/>
    <trip id="6h368" depart="21720.00" from="L6K6" to="B10A10"/>
    <trip id="6h369" depart="21721.00" from="G0G1" to="G10G11"/>
    <trip id="6h370" depart="21722.00" from="A1B1" to="B10A10"/>
    <trip id="6h371" depart="21722.00" from="J11J10" to="G10G11"/>
    <trip id="6h372" depart="21722.00" from="D11D10" to="B8A8"/>
    <trip id="6h373" depart="21722.00" from="L10K10" to="E10E11"/>
    <trip id="6h374" depart="21723.00" from="A9B9" to="B2A2"/>
    <trip id="6h375" depart="21723.00" from="H11H10" to="J1J0"/>
    <trip id="6h376" depart="21723.00" from="K0K1" to="E10E11"/>
    <trip id="6h377" depart="21723.00" from="A9B9" to="K5L5"/>
    <trip id="6h378" depart="21723.00" from="G0G1" to="C10C11"/>
    <trip id="6h379" depart="21724.00" from="A7B7" to="I6H6"/>
    <trip id="6h380" depart="21724.00" from="C0C1" to="B1B0"/>
    <trip id="6h381" depart="21725.00" from="D11D10" to="K10K11"/>
    <trip id="6h382" depart="21725.00" from="J11J10" to="K1L1"/>
    <trip id="6h383" depart="21726.00" from="B11B10" to="B6A6"/>
    <trip id="6h384" depart="21726.00" from="K0K1" to="B6A6"/>
    <trip id="6h385" depart="21726.00" from="J11J10" to="H3H2"/>
    <trip id="6h386" depart="21727.00" from="K0K1" to="K10K11"/>
    <trip id="6h387" depart="21727.00" from="L6K6" to="K9L9"/>
    <trip id="6h388" depart="21727.00" from="L8K8" to="F1F0"/>
    <trip id="6h389" depart="21727.00" from="H4H3" to="B6A6"/>
    <trip id="6h390" depart="21728.00" from="G0G1" to="F7F6"/>
    <trip id="6h391" depart="21728.00" from="L8K8" to="F1F0"/>
    <trip id="6h392" depart="21729.00" from="A7B7" to="B8A8"/>
    <trip id="6h393" depart="21729.00" from="C3C4" to="D1D0"/>
    <trip id="6h394" depart="21730.00" from="L2K2" to="K9L9"/>
    <trip id="6h395" depart="21730.00" from="L10K10" to="B4A4"/>
    <trip id="6h396" depart="21731.00" from="A1B1" to="K3L3"/>
    <trip id="6h397" depart="21731.00" from="J11J10" to="B10A10"/>
    <trip id="6h398" depart="21732.00" from="G6G7" to="B10A10"/>
    <trip id="6h399" depart="21732.00" from="L8K8" to="B10A10"/>
    <trip id="6h400" depart="21733.00" from="A5B5" to="B4A4"/>
    <trip id="6h401" depart="21733.00" from="G0G1" to="K3L3"/>
    <trip id="6h402" depart="21733.00" from="E0E1" to="D1D0"/>
    <trip id="6h403" depart="21733.00" from="J11J10" to="K3L3"/>
    <trip id="6h404" depart="21734.00" from="D11D10" to="G7H7"/>
    <trip id="6h405" depart="21734.00" from="A1B1" to="B4A4"/>
    <trip id="6h406" depart="21734.00" from="G0G1" to="B10A10"/>
    <trip id="6h407" depart="21734.00" from="L4K4" to="K5L5"/>
    <trip id="6h408" depart="21735.00" from="A3B3" to="K7L7"/>
    <trip id="6h409" depart="21735.00" from="L6K6" to="C10C11"/>
    <trip id="6h410" depart="21736.00" from="A7B7" to="B8A8"/>
    <trip id="6h411" depart="21736.00" from="L8K8" to="K10K11"/>
    <trip id="6h412" depart="21736.00" from="E10D10" to="K3L3"/>
    <trip id="6h413" depart="21737.00" from="B11B10" to="K9L9"/>
    <trip id="6h414" depart="21738.00" from="I0I1" to="K1L1"/>
    <trip id="6h415" depart="21738.00" from="A7B7" to="J2J1"/>
    <trip id="6h416" depart="21738.00" from="A5B5" to="B10A10"/>
    <trip id="6h417" depart="21738.00" from="D11D10" to="B8A8"/>
    <trip id="6h418" depart="21738.00" from="A9B9" to="F1F0"/>
    <trip id="6h419" depart="21739.00" from="D11D10" to="B2A2"/>
    <trip id="6h420" depart="21739.00" from="D6D5" to="B1B0"/>
    <trip id="6h421" depart="21740.00" from="D11D10" to="B2B1"/>
    <trip id="6h422" depart="21740.00" from="F2F1" to="B1B0"/>
    <trip id="6h423" depart="21740.00" from="B11B10" to="B8A8"/>
    <trip id="6h424" depart="21740.00" from="A5B5" to="C10C11"/>
    <trip id="6h425" depart="21741.00" from="C0C1" to="K7L7"/>
    <trip id="6h426" depart="21742.00" from="C0C1" to="K9L9"/>
    <trip id="6h427" depart="21742.00" from="J11J10" to="F1F0"/>
    <trip id="6h428" depart="21742.00" from="D11D10" to="K3L3"/>
    <trip id="6h429" depart="21742.00" from="H11H10" to="H1H0"/>
    <trip id="6h430" depart="21743.00" from="J11J10" to="K3L3"/>
    <trip id="6h431" depart="21743.00" from="I4H4" to="J6J5"/>
    <trip id="6h432" depart="21744.00" from="L8K8" to="F1F0"/>
    <trip id="6h433" depart="21745.00" from="K7K8" to="I3I4"/>
    <trip id="6h434" depart="21745.00" from="L8K8" to="J1J0"/>
    <trip id="6h435" depart="21746.00" from="B11B10" to="G10G11"/>
    <trip id="6h436" depart="21747.00" from="A5B5" to="E10E11"/>
    <trip id="6h437" depart="21747.00" from="L6K6" to="B4A4"/>
    <trip id="6h438" depart="21747.00" from="F11F10" to="B6A6"/>
    <trip id="6h439" depart="21747.00" from="L10K10" to="B2A2"/>
    <trip id="6h440" depart="21748.00" from="L8K8" to="B8A8"/>
    <trip id="6h441" depart="21748.00" from="A7B7" to="H1H0"/>
    <trip id="6h442" depart="21748.00" from="E0E1" to="B4A4"/>
    <trip id="6h443" depart="21748.00" from="I0I1" to="B6A6"/>
    <trip id="6h444" depart="21749.00" from="K0K1" to="K1L1"/>
    <trip id="6h445" depart="21749.00" from="A5B5" to="K5L5"/>
    <trip id="6h446" depart="21749.00" from="C0C1" to="F1F0"/>
    <trip id="6h447" depart="21749.00" from="L4K4" to="G10G11"/>
    <trip id="6h448" depart="21750.00" from="I0I1" to="B1B0"/>
    <trip id="6h449" depart="21750.00" from="A5B5" to="C10C11"/>
    <trip id="6h450" depart="21750.00" from="J11J10" to="G10G11"/>
    <trip id="6h451" depart="21751.00" from="D2C2" to="B4A4"/>
    <trip id="6h452" depart="21751.00" from="C0C1" to="F1F0"/>
    <trip id="6h453" depart="21751.00" from="D11D10" to="B10A10"/>
    <trip id="6h454" depart="21751.00" from="L10K10" to="K9L9"/>
    <trip id="6h455" depart="21752.00" from="A1B1" to="K10K11"/>
    <trip id="6h456" depart="21752.00" from="B11B10" to="G10G11"/>
    <trip id="6h457" depart="21752.00" from="F11F10" to="K10K11"/>
    <trip id="6h458" depart="21753.00" from="A5B5" to="K1L1"/>
    <trip id="6h459" depart="21753.00" from="K0K1" to="G1G2"/>