<?xml version="1.0" encoding="UTF-8"?>
<!-- generated on 2020-12-09 02:55:00.514233 by randomTrips.py v1_7_0+0000-714814baed
  options: -n .\data/grid01-bcn_06.net.xml <doubleminus>prefix=1h <doubleminus>fringe-factor 100 -b 3600 -e 7200 -p5.142857142857143 <doubleminus>binomial 10 -odata/random/random_h_1-bcn_06.trips.rou.xml <doubleminus>edge-permission=passenger
-->
<routes xmlns:xsi="http://www.w3.org/2001/XMLSchema-instance" xsi:noNamespaceSchemaLocation="http://sumo.dlr.de/xsd/routes_file.xsd">
    <trip id="1h0" depart="3601.00" from="L10K10" to="J1J0"/>
    <trip id="1h1" depart="3609.00" from="K0K1" to="J1J0"/>
    <trip id="1h2" depart="3612.00" from="C0C1" to="B10A10"/>
    <trip id="1h3" depart="3626.00" from="L2K2" to="C10C11"/>
    <trip id="1h4" depart="3628.00" from="L10K10" to="I10I11"/>
    <trip id="1h5" depart="3628.00" from="A3B3" to="K5L5"/>
    <trip id="1h6" depart="3635.00" from="L6K6" to="G10G11"/>
    <trip id="1h7" depart="3638.00" from="C0C1" to="E10E11"/>
    <trip id="1h8" depart="3641.00" from="K0K1" to="K1L1"/>
    <trip id="1h9" depart="3646.00" from="D11D10" to="K10K11"/>
    <trip id="1h10" depart="3649.00" from="G0G1" to="K9L9"/>
    <trip id="1h11" depart="3657.00" from="L6K6" to="B1B0"/>
    <trip id="1h12" depart="3661.00" from="G0G1" to="B8A8"/>
    <trip id="1h13" depart="3665.00" from="F11F10" to="H1H0"/>
    <trip id="1h14" depart="3685.00" from="L10K10" to="K5L5"/>
    <trip id="1h15" depart="3692.00" from="G0G1" to="F1F0"/>
    <trip id="1h16" depart="3699.00" from="L2K2" to="B4A4"/>
    <trip id="1h17" depart="3700.00" from="L10K10" to="B8A8"/>
    <trip id="1h18" depart="3709.00" from="L4K4" to="H1H0"/>
    <trip id="1h19" depart="3713.00" from="C0C1" to="B6A6"/>
    <trip id="1h20" depart="3713.00" from="K0K1" to="B4A4"/>
    <trip id="1h21" depart="3714.00" from="L6K6" to="K5L5"/>
    <trip id="1h22" depart="3734.00" from="A3B3" to="B8A8"/>
    <trip id="1h23" depart="3736.00" from="G0G1" to="B8A8"/>
    <trip id="1h24" depart="3738.00" from="L10K10" to="D1D0"/>
    <trip id="1h25" depart="3768.00" from="C0C1" to="B4A4"/>
    <trip id="1h26" depart="3775.00" from="G5G6" to="K7L7"/>
    <trip id="1h27" depart="3778.00" from="H11H10" to="B2A2"/>
    <trip id="1h28" depart="3781.00" from="I0I1" to="J1J0"/>
    <trip id="1h29" depart="3790.00" from="A1B1" to="C10C11"/>
    <trip id="1h30" depart="3791.00" from="A9B9" to="B2A2"/>
    <trip id="1h31" depart="3798.00" from="L6K6" to="K9L9"/>
    <trip id="1h32" depart="3804.00" from="G0G1" to="D1D0"/>
    <trip id="1h33" depart="3805.00" from="G6G7" to="B10A10"/>
    <trip id="1h34" depart="3805.00" from="L10K10" to="J1J0"/>
    <trip id="1h35" depart="3808.00" from="A7B7" to="F9G9"/>
    <trip id="1h36" depart="3814.00" from="C0C1" to="D1D0"/>
    <trip id="1h37" depart="3825.00" from="B11B10" to="G10G11"/>
    <trip id="1h38" depart="3835.00" from="A5B5" to="K3L3"/>
    <trip id="1h39" depart="3843.00" from="L10K10" to="K10K11"/>
    <trip id="1h40" depart="3846.00" from="L8K8" to="B6A6"/>
    <trip id="1h41" depart="3848.00" from="F11F10" to="B2A2"/>
    <trip id="1h42" depart="3848.00" from="J11J10" to="K3L3"/>
    <trip id="1h43" depart="3850.00" from="I0I1" to="E4D4"/>
    <trip id="1h44" depart="3854.00" from="A3B3" to="B8A8"/>
    <trip id="1h45" depart="3864.00" from="A9B9" to="H1H0"/>
    <trip id="1h46" depart="3865.00" from="E0E1" to="B6A6"/>
    <trip id="1h47" depart="3866.00" from="I2I3" to="K3L3"/>
    <trip id="1h48" depart="3872.00" from="L2K2" to="K9L9"/>
    <trip id="1h49" depart="3882.00" from="L6K6" to="B6A6"/>
    <trip id="1h50" depart="3889.00" from="D4D3" to="K10K11"/>
    <trip id="1h51" depart="3910.00" from="L6K6" to="I10I11"/>
    <trip id="1h52" depart="3910.00" from="B11B10" to="K1L1"/>
    <trip id="1h53" depart="3920.00" from="B11B10" to="K10K11"/>
    <trip id="1h54" depart="3922.00" from="C0C1" to="K3L3"/>
    <trip id="1h55" depart="3929.00" from="J11J10" to="K7K8"/>
    <trip id="1h56" depart="3940.00" from="A3B3" to="H4H3"/>
    <trip id="1h57" depart="3954.00" from="B11B10" to="I10I11"/>
    <trip id="1h58" depart="3959.00" from="J11J10" to="F10E10"/>
    <trip id="1h59" depart="3962.00" from="A3B3" to="J1J0"/>
    <trip id="1h60" depart="3964.00" from="J11J10" to="G10G11"/>
    <trip id="1h61" depart="3967.00" from="H11H10" to="G10G11"/>
    <trip id="1h62" depart="3972.00" from="B11B10" to="B6A6"/>
    <trip id="1h63" depart="3974.00" from="G0G1" to="B10A10"/>
    <trip id="1h64" depart="3983.00" from="K0K1" to="I7J7"/>
    <trip id="1h65" depart="3990.00" from="I0I1" to="J1J0"/>
    <trip id="1h66" depart="3993.00" from="A3B3" to="B4A4"/>
    <trip id="1h67" depart="3996.00" from="A7B7" to="K9L9"/>
    <trip id="1h68" depart="4001.00" from="L2K2" to="B8A8"/>
    <trip id="1h69" depart="4007.00" from="A9B9" to="H1H0"/>
    <trip id="1h70" depart="4021.00" from="L10K10" to="K3L3"/>
    <trip id="1h71" depart="4021.00" from="L6K6" to="K7L7"/>
    <trip id="1h72" depart="4021.00" from="E0E1" to="C10C11"/>
    <trip id="1h73" depart="4021.00" from="D11D10" to="E10E11"/>
    <trip id="1h74" depart="4024.00" from="A3B3" to="G10G11"/>
    <trip id="1h75" depart="4030.00" from="A1B1" to="K1L1"/>
    <trip id="1h76" depart="4034.00" from="I0I1" to="D1D0"/>
    <trip id="1h77" depart="4034.00" from="L2K2" to="K1L1"/>
    <trip id="1h78" depart="4048.00" from="L10K10" to="D1D0"/>
    <trip id="1h79" depart="4054.00" from="J11J10" to="B2A2"/>
    <trip id="1h80" depart="4056.00" from="H11H10" to="I9J9"/>
    <trip id="1h81" depart="4056.00" from="D7E7" to="B8A8"/>
    <trip id="1h82" depart="4057.00" from="L4K4" to="I10I11"/>
    <trip id="1h83" depart="4067.00" from="B11B10" to="E10E11"/>
    <trip id="1h84" depart="4076.00" from="L4K4" to="B8A8"/>
    <trip id="1h85" depart="4083.00" from="A1B1" to="I10I11"/>
    <trip id="1h86" depart="4084.00" from="A9B9" to="B9C9"/>
    <trip id="1h87" depart="4085.00" from="J11J10" to="D1D0"/>
    <trip id="1h88" depart="4092.00" from="L6K6" to="J1J0"/>
    <trip id="1h89" depart="4094.00" from="I0I1" to="G10G11"/>
    <trip id="1h90" depart="4104.00" from="A7B7" to="B4A4"/>
    <trip id="1h91" depart="4106.00" from="L8K8" to="E10E11"/>
    <trip id="1h92" depart="4109.00" from="K0K1" to="F1F0"/>
    <trip id="1h93" depart="4116.00" from="A5B5" to="B4A4"/>
    <trip id="1h94" depart="4120.00" from="L6K6" to="F1F0"/>
    <trip id="1h95" depart="4123.00" from="A5B5" to="B2A2"/>
    <trip id="1h96" depart="4130.00" from="L8K8" to="K3L3"/>
    <trip id="1h97" depart="4140.00" from="F11F10" to="B10A10"/>
    <trip id="1h98" depart="4142.00" from="B11B10" to="B2A2"/>
    <trip id="1h99" depart="4151.00" from="L8K8" to="B10A10"/>
    <trip id="1h100" depart="4152.00" from="K0K1" to="K7L7"/>
    <trip id="1h101" depart="4167.00" from="K0K1" to="K9L9"/>
    <trip id="1h102" depart="4176.00" from="B11B10" to="K9L9"/>
    <trip id="1h103" depart="4181.00" from="G0G1" to="D1D0"/>
    <trip id="1h104" depart="4188.00" from="A9B9" to="B6A6"/>
    <trip id="1h105" depart="4209.00" from="J11J10" to="K5L5"/>
    <trip id="1h106" depart="4231.00" from="A5B5" to="C10C11"/>
    <trip id="1h107" depart="4242.00" from="L8K8" to="I1J1"/>
    <trip id="1h108" depart="4251.00" from="A5B5" to="B4A4"/>
    <trip id="1h109" depart="4253.00" from="A5B5" to="B10A10"/>
    <trip id="1h110" depart="4255.00" from="I0I1" to="J4I4"/>
    <trip id="1h111" depart="4261.00" from="L4K4" to="D1D0"/>
    <trip id="1h112" depart="4269.00" from="L10K10" to="K7L7"/>
    <trip id="1h113" depart="4271.00" from="B7B6" to="G10G11"/>
    <trip id="1h114" depart="4287.00" from="L10K10" to="B8A8"/>
    <trip id="1h115" depart="4294.00" from="F11F10" to="K3L3"/>
    <trip id="1h116" depart="4294.00" from="L6K6" to="F1F0"/>
    <trip id="1h117" depart="4297.00" from="J11J10" to="I10I11"/>
    <trip id="1h118" depart="4297.00" from="F11F10" to="K5L5"/>
    <trip id="1h119" depart="4300.00" from="F11F10" to="K7L7"/>
    <trip id="1h120" depart="4306.00" from="A9B9" to="B1B0"/>
    <trip id="1h121" depart="4311.00" from="D2C2" to="K1L1"/>
    <trip id="1h122" depart="4314.00" from="H11H10" to="J1J0"/>
    <trip id="1h123" depart="4317.00" from="A9B9" to="B6A6"/>
    <trip id="1h124" depart="4330.00" from="C0C1" to="K3L3"/>
    <trip id="1h125" depart="4334.00" from="L10K10" to="K3L3"/>
    <trip id="1h126" depart="4340.00" from="A7B7" to="B1B0"/>
    <trip id="1h127" depart="4345.00" from="A5B5" to="K7L7"/>
    <trip id="1h128" depart="4347.00" from="A5B5" to="C10C11"/>
    <trip id="1h129" depart="4349.00" from="L10K10" to="K1L1"/>
    <trip id="1h130" depart="4359.00" from="L4K4" to="B1B0"/>
    <trip id="1h131" depart="4364.00" from="G0G1" to="K10K11"/>
    <trip id="1h132" depart="4368.00" from="L10K10" to="I10I11"/>
    <trip id="1h133" depart="4371.00" from="A3B3" to="J1J0"/>
    <trip id="1h134" depart="4374.00" from="H11H10" to="K9L9"/>
    <trip id="1h135" depart="4375.00" from="H3H2" to="K9L9"/>
    <trip id="1h136" depart="4378.00" from="D11D10" to="B10A10"/>
    <trip id="1h137" depart="4386.00" from="A3B3" to="G10G11"/>
    <trip id="1h138" depart="4394.00" from="K0K1" to="H1H0"/>
    <trip id="1h139" depart="4403.00" from="C0C1" to="K7L7"/>
    <trip id="1h140" depart="4409.00" from="D11D10" to="K9L9"/>
    <trip id="1h141" depart="4411.00" from="G0G1" to="B4A4"/>
    <trip id="1h142" depart="4421.00" from="L4K4" to="B4B3"/>
    <trip id="1h143" depart="4432.00" from="G6G7" to="K5L5"/>
    <trip id="1h144" depart="4441.00" from="D11D10" to="H5I5"/>
    <trip id="1h145" depart="4448.00" from="L8K8" to="K9L9"/>
    <trip id="1h146" depart="4454.00" from="L6K6" to="B4A4"/>
    <trip id="1h147" depart="4458.00" from="L8K8" to="B10A10"/>
    <trip id="1h148" depart="4463.00" from="L2K2" to="J1J0"/>
    <trip id="1h149" depart="4468.00" from="D11D10" to="C10C11"/>
    <trip id="1h150" depart="4477.00" from="L2K2" to="C10C11"/>
    <trip id="1h151" depart="4484.00" from="L10K10" to="H1H0"/>
    <trip id="1h152" depart="4486.00" from="F11F10" to="K3L3"/>
    <trip id="1h153" depart="4487.00" from="L10K10" to="B10A10"/>
    <trip id="1h154" depart="4492.00" from="D11D10" to="B6A6"/>
    <trip id="1h155" depart="4493.00" from="A7B7" to="D1D0"/>
    <trip id="1h156" depart="4502.00" from="A7B7" to="H1H0"/>
    <trip id="1h157" depart="4509.00" from="C1D1" to="F1F0"/>
    <trip id="1h158" depart="4515.00" from="A5B5" to="C10C11"/>
    <trip id="1h159" depart="4520.00" from="A9B9" to="K3L3"/>
    <trip id="1h160" depart="4529.00" from="F11F10" to="C7D7"/>
    <trip id="1h161" depart="4532.00" from="D11D10" to="J1J0"/>
    <trip id="1h162" depart="4537.00" from="A1B1" to="C10C11"/>
    <trip id="1h163" depart="4538.00" from="B11B10" to="D1D0"/>
    <trip id="1h164" depart="4544.00" from="L10K10" to="K5L5"/>
    <trip id="1h165" depart="4547.00" from="F11F10" to="J1J0"/>
    <trip id="1h166" depart="4547.00" from="H4G4" to="B2A2"/>
    <trip id="1h167" depart="4551.00" from="C0C1" to="I10I11"/>
    <trip id="1h168" depart="4571.00" from="K0K1" to="K3L3"/>
    <trip id="1h169" depart="4581.00" from="L10K10" to="K7L7"/>
    <trip id="1h170" depart="4596.00" from="A5B5" to="B8A8"/>
    <trip id="1h171" depart="4604.00" from="L2K2" to="B10A10"/>
    <trip id="1h172" depart="4608.00" from="A5B5" to="D1D0"/>
    <trip id="1h173" depart="4610.00" from="A3B3" to="H1H0"/>
    <trip id="1h174" depart="4621.00" from="L2K2" to="H5H4"/>
    <trip id="1h175" depart="4623.00" from="F6F5" to="E10E11"/>
    <trip id="1h176" depart="4626.00" from="J11J10" to="K10K11"/>
    <trip id="1h177" depart="4631.00" from="E0E1" to="B4A4"/>
    <trip id="1h178" depart="4641.00" from="E6D6" to="G10G11"/>
    <trip id="1h179" depart="4641.00" from="C0C1" to="B2A2"/>
    <trip id="1h180" depart="4645.00" from="L2K2" to="K3L3"/>
    <trip id="1h181" depart="4647.00" from="B11B10" to="D1D0"/>
    <trip id="1h182" depart="4655.00" from="E0E1" to="C8B8"/>
    <trip id="1h183" depart="4659.00" from="A7B7" to="K5L5"/>
    <trip id="1h184" depart="4666.00" from="C0C1" to="H1H0"/>
    <trip id="1h185" depart="4670.00" from="C0C1" to="I10I11"/>
    <trip id="1h186" depart="4676.00" from="E0E1" to="B2A2"/>
    <trip id="1h187" depart="4677.00" from="C0C1" to="B1B0"/>
    <trip id="1h188" depart="4678.00" from="D11D10" to="D1D0"/>
    <trip id="1h189" depart="4690.00" from="A1B1" to="J1J0"/>
    <trip id="1h190" depart="4699.00" from="L6K6" to="D1D0"/>
    <trip id="1h191" depart="4706.00" from="K0K1" to="H1H0"/>
    <trip id="1h192" depart="4721.00" from="E1E2" to="B10A10"/>
    <trip id="1h193" depart="4724.00" from="L2K2" to="B10A10"/>
    <trip id="1h194" depart="4731.00" from="L10K10" to="E10E11"/>
    <trip id="1h195" depart="4736.00" from="L4K4" to="B1B0"/>
    <trip id="1h196" depart="4747.00" from="K0K1" to="D1D0"/>
    <trip id="1h197" depart="4750.00" from="B11B10" to="H1H0"/>
    <trip id="1h198" depart="4753.00" from="A5B5" to="C10C11"/>
    <trip id="1h199" depart="4770.00" from="B11B10" to="B10A10"/>
    <trip id="1h200" depart="4778.00" from="I0I1" to="J3J2"/>
    <trip id="1h201" depart="4782.00" from="D3D2" to="B10A10"/>
    <trip id="1h202" depart="4794.00" from="L6K6" to="B6A6"/>
    <trip id="1h203" depart="4794.00" from="B11B10" to="K3L3"/>
    <trip id="1h204" depart="4815.00" from="L2K2" to="B1B0"/>
    <trip id="1h205" depart="4822.00" from="L4K4" to="E10E11"/>
    <trip id="1h206" depart="4824.00" from="D11D10" to="K5L5"/>
    <trip id="1h207" depart="4827.00" from="A1B1" to="K1L1"/>
    <trip id="1h208" depart="4829.00" from="L10K10" to="B6B5"/>
    <trip id="1h209" depart="4831.00" from="A7B7" to="B6A6"/>
    <trip id="1h210" depart="4834.00" from="K0K1" to="B1B0"/>
    <trip id="1h211" depart="4838.00" from="L10K10" to="I7J7"/>
    <trip id="1h212" depart="4841.00" from="C0C1" to="B4A4"/>
    <trip id="1h213" depart="4844.00" from="G0G1" to="B2A2"/>
    <trip id="1h214" depart="4848.00" from="B11B10" to="B4A4"/>
    <trip id="1h215" depart="4856.00" from="K2J2" to="F1G1"/>
    <trip id="1h216" depart="4857.00" from="J11J10" to="H1H0"/>
    <trip id="1h217" depart="4863.00" from="A1B1" to="B1B0"/>
    <trip id="1h218" depart="4863.00" from="B11B10" to="B10A10"/>
    <trip id="1h219" depart="4868.00" from="L4K4" to="I2H2"/>
    <trip id="1h220" depart="4877.00" from="L10K10" to="G10G11"/>
    <trip id="1h221" depart="4883.00" from="A5B5" to="K5L5"/>
    <trip id="1h222" depart="4886.00" from="L10K10" to="K1L1"/>
    <trip id="1h223" depart="4891.00" from="A3B3" to="K1L1"/>
    <trip id="1h224" depart="4892.00" from="L4K4" to="B2A2"/>
    <trip id="1h225" depart="4904.00" from="A9B9" to="K7L7"/>
    <trip id="1h226" depart="4907.00" from="D11D10" to="I10I11"/>
    <trip id="1h227" depart="4921.00" from="L2K2" to="K1L1"/>
    <trip id="1h228" depart="4923.00" from="F11F10" to="K1L1"/>
    <trip id="1h229" depart="4926.00" from="E0E1" to="I10I11"/>
    <trip id="1h230" depart="4927.00" from="A9B9" to="E3E4"/>
    <trip id="1h231" depart="4934.00" from="A3B3" to="K4K5"/>
    <trip id="1h232" depart="4943.00" from="G0G1" to="F1G1"/>
    <trip id="1h233" depart="4943.00" from="A7B7" to="B2A2"/>
    <trip id="1h234" depart="4952.00" from="L10K10" to="K9L9"/>
    <trip id="1h235" depart="4954.00" from="F11F10" to="K3L3"/>
    <trip id="1h236" depart="4964.00" from="B11B10" to="K1L1"/>
    <trip id="1h237" depart="4969.00" from="D11D10" to="K9L9"/>
    <trip id="1h238" depart="4979.00" from="A9B9" to="J1J0"/>
    <trip id="1h239" depart="4979.00" from="G0G1" to="B8A8"/>
    <trip id="1h240" depart="4983.00" from="A5B5" to="B6A6"/>
    <trip id="1h241" depart="4991.00" from="L8K8" to="C10C11"/>
    <trip id="1h242" depart="4991.00" from="A9B9" to="B2A2"/>
    <trip id="1h243" depart="4998.00" from="J11J10" to="K7L7"/>
    <trip id="1h244" depart="5010.00" from="A1B1" to="J1J0"/>
    <trip id="1h245" depart="5014.00" from="B11B10" to="B8A8"/>
    <trip id="1h246" depart="5017.00" from="I0I1" to="I10I11"/>
    <trip id="1h247" depart="5018.00" from="I0I1" to="B8A8"/>
    <trip id="1h248" depart="5031.00" from="A9B9" to="K3L3"/>
    <trip id="1h249" depart="5033.00" from="I0I1" to="B6A6"/>
    <trip id="1h250" depart="5037.00" from="A1B1" to="B6A6"/>
    <trip id="1h251" depart="5043.00" from="L2K2" to="G10G11"/>
    <trip id="1h252" depart="5050.00" from="L2K2" to="C10C11"/>
    <trip id="1h253" depart="5050.00" from="D11D10" to="E10E11"/>
    <trip id="1h254" depart="5055.00" from="J11J10" to="G10G11"/>
    <trip id="1h255" depart="5058.00" from="F4F3" to="E7E8"/>
    <trip id="1h256" depart="5072.00" from="G0G1" to="B1B0"/>
    <trip id="1h257" depart="5073.00" from="C8C9" to="K9L9"/>
    <trip id="1h258" depart="5075.00" from="A7B7" to="K5L5"/>
    <trip id="1h259" depart="5081.00" from="I0I1" to="J1J0"/>
    <trip id="1h260" depart="5088.00" from="C0C1" to="F1F0"/>
    <trip id="1h261" depart="5100.00" from="D11D10" to="B10A10"/>
    <trip id="1h262" depart="5102.00" from="D11D10" to="G10G11"/>
    <trip id="1h263" depart="5104.00" from="C0C1" to="B1C1"/>
    <trip id="1h264" depart="5104.00" from="A3B3" to="B8A8"/>
    <trip id="1h265" depart="5122.00" from="E0E1" to="F1F0"/>
    <trip id="1h266" depart="5127.00" from="J11J10" to="K9L9"/>
    <trip id="1h267" depart="5129.00" from="A5B5" to="K9L9"/>
    <trip id="1h268" depart="5141.00" from="A9B9" to="J1J0"/>
    <trip id="1h269" depart="5146.00" from="B11B10" to="K9L9"/>
    <trip id="1h270" depart="5150.00" from="J2J1" to="K7L7"/>
    <trip id="1h271" depart="5156.00" from="A7B7" to="K2K3"/>
    <trip id="1h272" depart="5163.00" from="H11H10" to="B2A2"/>
    <trip id="1h273" depart="5179.00" from="L10K10" to="C10C11"/>
    <trip id="1h274" depart="5185.00" from="F11F10" to="G10G11"/>
    <trip id="1h275" depart="5186.00" from="L10K10" to="F10F9"/>
    <trip id="1h276" depart="5195.00" from="L2K2" to="K5L5"/>
    <trip id="1h277" depart="5198.00" from="J11J10" to="K10K11"/>
    <trip id="1h278" depart="5204.00" from="B11B10" to="K5L5"/>
    <trip id="1h279" depart="5204.00" from="J11J10" to="D4D3"/>
    <trip id="1h280" depart="5205.00" from="A3B3" to="C10C11"/>
    <trip id="1h281" depart="5208.00" from="L2K2" to="E10E11"/>
    <trip id="1h282" depart="5210.00" from="I0I1" to="K7L7"/>
    <trip id="1h283" depart="5211.00" from="L10K10" to="K10K11"/>
    <trip id="1h284" depart="5216.00" from="L8K8" to="G8G9"/>
    <trip id="1h285" depart="5216.00" from="L6K6" to="K5L5"/>
    <trip id="1h286" depart="5221.00" from="K0K1" to="B1B0"/>
    <trip id="1h287" depart="5223.00" from="A3B3" to="G10G11"/>
    <trip id="1h288" depart="5227.00" from="L8K8" to="B8A8"/>
    <trip id="1h289" depart="5238.00" from="C1D1" to="C10C11"/>
    <trip id="1h290" depart="5239.00" from="A3B3" to="B2A2"/>
    <trip id="1h291" depart="5243.00" from="E0E1" to="K9L9"/>
    <trip id="1h292" depart="5244.00" from="J11J10" to="H1H0"/>
    <trip id="1h293" depart="5244.00" from="D11D10" to="K7L7"/>
    <trip id="1h294" depart="5249.00" from="F11F10" to="D1D0"/>
    <trip id="1h295" depart="5252.00" from="K10J10" to="G10G11"/>
    <trip id="1h296" depart="5256.00" from="E9E10" to="B1B0"/>
    <trip id="1h297" depart="5265.00" from="A5B5" to="I10I11"/>
    <trip id="1h298" depart="5265.00" from="A1B1" to="B6A6"/>
    <trip id="1h299" depart="5274.00" from="I0I1" to="D1D0"/>
    <trip id="1h300" depart="5288.00" from="G0G1" to="J1J0"/>
    <trip id="1h301" depart="5299.00" from="D11D10" to="F1F0"/>
    <trip id="1h302" depart="5309.00" from="I5J5" to="B6A6"/>
    <trip id="1h303" depart="5312.00" from="L6K6" to="B1B0"/>
    <trip id="1h304" depart="5312.00" from="A5B5" to="B8A8"/>
    <trip id="1h305" depart="5313.00" from="I0I1" to="I10I11"/>
    <trip id="1h306" depart="5319.00" from="E0E1" to="H1H0"/>
    <trip id="1h307" depart="5329.00" from="L4K4" to="H1H0"/>
    <trip id="1h308" depart="5337.00" from="B11B10" to="F1F0"/>
    <trip id="1h309" depart="5343.00" from="L2K2" to="B4A4"/>
    <trip id="1h310" depart="5346.00" from="F11F10" to="B4A4"/>
    <trip id="1h311" depart="5357.00" from="G0G1" to="B6A6"/>
    <trip id="1h312" depart="5357.00" from="G0G1" to="G10G11"/>
    <trip id="1h313" depart="5367.00" from="K0K1" to="B2A2"/>
    <trip id="1h314" depart="5368.00" from="L10K10" to="B4A4"/>
    <trip id="1h315" depart="5374.00" from="A1B1" to="K7L7"/>
    <trip id="1h316" depart="5374.00" from="I0I1" to="C10C11"/>
    <trip id="1h317" depart="5382.00" from="L4K4" to="G10G11"/>
    <trip id="1h318" depart="5386.00" from="E8E9" to="C10C11"/>
    <trip id="1h319" depart="5393.00" from="L4K4" to="H1H0"/>
    <trip id="1h320" depart="5396.00" from="L8K8" to="D1D0"/>
    <trip id="1h321" depart="5403.00" from="L2K2" to="K9L9"/>
    <trip id="1h322" depart="5412.00" from="L2K2" to="E10E11"/>
    <trip id="1h323" depart="5422.00" from="C1C2" to="H1H0"/>
    <trip id="1h324" depart="5428.00" from="L8K8" to="G10G11"/>
    <trip id="1h325" depart="5435.00" from="L6K6" to="C10C11"/>
    <trip id="1h326" depart="5438.00" from="A7B7" to="E10E11"/>
    <trip id="1h327" depart="5440.00" from="A7B7" to="G10G11"/>
    <trip id="1h328" depart="5447.00" from="K0K1" to="B1B0"/>
    <trip id="1h329" depart="5454.00" from="F11F10" to="H5H4"/>
    <trip id="1h330" depart="5458.00" from="B11B10" to="B8A8"/>
    <trip id="1h331" depart="5459.00" from="D11D10" to="B6A6"/>
    <trip id="1h332" depart="5469.00" from="A3B3" to="B4A4"/>
    <trip id="1h333" depart="5469.00" from="L4K4" to="B10A10"/>
    <trip id="1h334" depart="5470.00" from="G0G1" to="B8A8"/>
    <trip id="1h335" depart="5470.00" from="G0G1" to="H1H0"/>
    <trip id="1h336" depart="5476.00" from="D11D10" to="C10C11"/>
    <trip id="1h337" depart="5481.00" from="C0C1" to="B4A4"/>
    <trip id="1h338" depart="5482.00" from="J11J10" to="K5L5"/>
    <trip id="1h339" depart="5487.00" from="F9F8" to="K10K11"/>
    <trip id="1h340" depart="5496.00" from="J11J10" to="B7B6"/>
    <trip id="1h341" depart="5497.00" from="L2K2" to="K3L3"/>
    <trip id="1h342" depart="5499.00" from="L6K6" to="F6E6"/>
    <trip id="1h343" depart="5504.00" from="A5B5" to="B6A6"/>
    <trip id="1h344" depart="5505.00" from="A5B5" to="F1F0"/>
    <trip id="1h345" depart="5507.00" from="L10K10" to="G1H1"/>
    <trip id="1h346" depart="5508.00" from="I0I1" to="J1J0"/>
    <trip id="1h347" depart="5512.00" from="L6K6" to="B6A6"/>
    <trip id="1h348" depart="5513.00" from="L6K6" to="K10K11"/>
    <trip id="1h349" depart="5522.00" from="A9B9" to="E6E7"/>
    <trip id="1h350" depart="5524.00" from="I0I1" to="D1D0"/>
    <trip id="1h351" depart="5529.00" from="A9B9" to="I1J1"/>
    <trip id="1h352" depart="5538.00" from="A9B9" to="H1H0"/>
    <trip id="1h353" depart="5543.00" from="K0K1" to="K9L9"/>
    <trip id="1h354" depart="5543.00" from="J6I6" to="B2A2"/>
    <trip id="1h355" depart="5545.00" from="A7B7" to="D1D0"/>
    <trip id="1h356" depart="5548.00" from="G0G1" to="D1D0"/>
    <trip id="1h357" depart="5562.00" from="G0G1" to="E10E11"/>
    <trip id="1h358" depart="5567.00" from="B11B10" to="B1B0"/>
    <trip id="1h359" depart="5569.00" from="A3B3" to="K9L9"/>
    <trip id="1h360" depart="5570.00" from="H11H10" to="B6A6"/>
    <trip id="1h361" depart="5571.00" from="L6K6" to="I10I11"/>
    <trip id="1h362" depart="5579.00" from="D11D10" to="G10G11"/>
    <trip id="1h363" depart="5580.00" from="L10K10" to="H1H0"/>
    <trip id="1h364" depart="5584.00" from="G0G1" to="C8B8"/>
    <trip id="1h365" depart="5592.00" from="A9B9" to="K1L1"/>
    <trip id="1h366" depart="5596.00" from="C0C1" to="K1L1"/>
    <trip id="1h367" depart="5597.00" from="B11B10" to="H7I7"/>
    <trip id="1h368" depart="5599.00" from="I0I1" to="K9K10"/>
    <trip id="1h369" depart="5600.00" from="L6K6" to="K1L1"/>
    <trip id="1h370" depart="5603.00" from="A7B7" to="G10G11"/>
    <trip id="1h371" depart="5605.00" from="A1B1" to="B2A2"/>
    <trip id="1h372" depart="5605.00" from="I0I1" to="F1F0"/>
    <trip id="1h373" depart="5607.00" from="A7B7" to="K10K11"/>
    <trip id="1h374" depart="5607.00" from="A3B3" to="K7L7"/>
    <trip id="1h375" depart="5609.00" from="L6K6" to="C10C11"/>
    <trip id="1h376" depart="5614.00" from="E0E1" to="B1B0"/>
    <trip id="1h377" depart="5627.00" from="B11B10" to="K7L7"/>
    <trip id="1h378" depart="5628.00" from="F5G5" to="F5F4"/>
    <trip id="1h379" depart="5630.00" from="B11B10" to="E10E11"/>
    <trip id="1h380" depart="5634.00" from="D11D10" to="K10K11"/>
    <trip id="1h381" depart="5635.00" from="B11B10" to="K3L3"/>
    <trip id="1h382" depart="5635.00" from="C0C1" to="K5L5"/>
    <trip id="1h383" depart="5636.00" from="K0K1" to="H4H3"/>
    <trip id="1h384" depart="5644.00" from="F11F10" to="B8A8"/>
    <trip id="1h385" depart="5649.00" from="A1B1" to="K10K11"/>
    <trip id="1h386" depart="5649.00" from="G0G1" to="B2A2"/>
    <trip id="1h387" depart="5654.00" from="H11H10" to="K10J10"/>
    <trip id="1h388" depart="5656.00" from="L8K8" to="E10E11"/>
    <trip id="1h389" depart="5657.00" from="A9B9" to="K1L1"/>
    <trip id="1h390" depart="5657.00" from="E5E6" to="J1J0"/>
    <trip id="1h391" depart="5662.00" from="J11J10" to="B1B0"/>
    <trip id="1h392" depart="5663.00" from="I0I1" to="H1H0"/>
    <trip id="1h393" depart="5669.00" from="J11J10" to="C4C5"/>
    <trip id="1h394" depart="5670.00" from="L2K2" to="K1L1"/>
    <trip id="1h395" depart="5672.00" from="H11H10" to="B1B0"/>
    <trip id="1h396" depart="5681.00" from="J11J10" to="B4A4"/>
    <trip id="1h397" depart="5687.00" from="I0I1" to="K7L7"/>
    <trip id="1h398" depart="5689.00" from="A3B3" to="G10G11"/>
    <trip id="1h399" depart="5692.00" from="L10K10" to="K3L3"/>
    <trip id="1h400" depart="5695.00" from="K8K9" to="I10I11"/>
    <trip id="1h401" depart="5696.00" from="C0C1" to="B10A10"/>
    <trip id="1h402" depart="5697.00" from="D10D9" to="K3L3"/>
    <trip id="1h403" depart="5699.00" from="A9B9" to="C10C11"/>
    <trip id="1h404" depart="5701.00" from="G0G1" to="K10K11"/>
    <trip id="1h405" depart="5736.00" from="L8K8" to="K10K11"/>
    <trip id="1h406" depart="5745.00" from="F11F10" to="B8A8"/>
    <trip id="1h407" depart="5747.00" from="A1B1" to="C10C11"/>
    <trip id="1h408" depart="5749.00" from="L10K10" to="B1B0"/>
    <trip id="1h409" depart="5750.00" from="L4K4" to="K3L3"/>
    <trip id="1h410" depart="5751.00" from="A1B1" to="B4A4"/>
    <trip id="1h411" depart="5752.00" from="C0C1" to="K3L3"/>
    <trip id="1h412" depart="5753.00" from="L8K8" to="E10E11"/>
    <trip id="1h413" depart="5757.00" from="B11B10" to="G10G11"/>
    <trip id="1h414" depart="5769.00" from="A5B5" to="G10G11"/>
    <trip id="1h415" depart="5772.00" from="E0E1" to="H1H0"/>
    <trip id="1h416" depart="5778.00" from="C0C1" to="I10I11"/>
    <trip id="1h417" depart="5783.00" from="A5B5" to="K6K7"/>
    <trip id="1h418" depart="5783.00" from="L8K8" to="G10G11"/>
    <trip id="1h419" depart="5793.00" from="L2K2" to="G10G11"/>
    <trip id="1h420" depart="5794.00" from="I0I1" to="K3L3"/>
    <trip id="1h421" depart="5799.00" from="L6K6" to="C10C11"/>
    <trip id="1h422" depart="5805.00" from="L10K10" to="G7H7"/>
    <trip id="1h423" depart="5807.00" from="A3B3" to="B1B0"/>
    <trip id="1h424" depart="5810.00" from="C0C1" to="B4A4"/>
    <trip id="1h425" depart="5811.00" from="A1B1" to="B1B0"/>
    <trip id="1h426" depart="5817.00" from="A9B9" to="B2A2"/>
    <trip id="1h427" depart="5818.00" from="A7B7" to="E10E11"/>
    <trip id="1h428" depart="5819.00" from="I0I1" to="B4A4"/>
    <trip id="1h429" depart="5836.00" from="E0E1" to="B2A2"/>
    <trip id="1h430" depart="5839.00" from="L6K6" to="K9L9"/>
    <trip id="1h431" depart="5842.00" from="A9B9" to="I10I11"/>
    <trip id="1h432" depart="5843.00" from="A3B3" to="B2A2"/>
    <trip id="1h433" depart="5848.00" from="A5B5" to="C5C6"/>
    <trip id="1h434" depart="5852.00" from="L6K6" to="G10G11"/>
    <trip id="1h435" depart="5859.00" from="L10K10" to="D1D0"/>
    <trip id="1h436" depart="5868.00" from="I0I1" to="D1D0"/>
    <trip id="1h437" depart="5869.00" from="A1B1" to="J1J0"/>
    <trip id="1h438" depart="5876.00" from="L10K10" to="J1J0"/>
    <trip id="1h439" depart="5879.00" from="L4K4" to="B1B0"/>
    <trip id="1h440" depart="5880.00" from="L6K6" to="K3L3"/>
    <trip id="1h441" depart="5883.00" from="D11D10" to="J9J8"/>
    <trip id="1h442" depart="5889.00" from="J11J10" to="B6A6"/>
    <trip id="1h443" depart="5890.00" from="C0C1" to="H1H0"/>
    <trip id="1h444" depart="5896.00" from="A7B7" to="B6A6"/>
    <trip id="1h445" depart="5898.00" from="L6K6" to="I10I11"/>
    <trip id="1h446" depart="5905.00" from="G0G1" to="H9I9"/>
    <trip id="1h447" depart="5908.00" from="F11F10" to="B8B7"/>
    <trip id="1h448" depart="5909.00" from="H11H10" to="B10A10"/>
    <trip id="1h449" depart="5910.00" from="L8K8" to="B10A10"/>
    <trip id="1h450" depart="5919.00" from="I0I1" to="B1B0"/>
    <trip id="1h451" depart="5930.00" from="I0I1" to="D1D0"/>
    <trip id="1h452" depart="5930.00" from="L8K8" to="B10A10"/>
    <trip id="1h453" depart="5937.00" from="K0K1" to="H1H0"/>
    <trip id="1h454" depart="5967.00" from="L10K10" to="F1F0"/>
    <trip id="1h455" depart="5971.00" from="L6K6" to="C10C11"/>
    <trip id="1h456" depart="5974.00" from="H11H10" to="E3E4"/>
    <trip id="1h457" depart="5980.00" from="E0E1" to="B4A4"/>
    <trip id="1h458" depart="5986.00" from="K0K1" to="K1L1"/>
    <trip id="1h459" depart="5988.00" from="J11J10" to="F1F0"/>
    <trip id="1h460" depart="5992.00" from="L8K8" to="K7L7"/>
    <trip id="1h461" depart="5997.00" from="L2K2" to="B10A10"/>
    <trip id="1h462" depart="5998.00" from="C0C1" to="K7L7"/>
    <trip id="1h463" depart="6009.00" from="L8K8" to="B8A8"/>
    <trip id="1h464" depart="6014.00" from="D11D10" to="B2A2"/>
    <trip id="1h465" depart="6014.00" from="I0I1" to="B1B0"/>
    <trip id="1h466" depart="6015.00" from="A7B7" to="J1J0"/>
    <trip id="1h467" depart="6018.00" from="L4K4" to="K5L5"/>