<?xml version="1.0" encoding="UTF-8"?>
<!-- generated on 2020-12-09 02:54:59.902584 by randomTrips.py v1_7_0+0000-714814baed
  options: -n .\data/grid01-bcn_06.net.xml <doubleminus>prefix=0h <doubleminus>fringe-factor 100 -b 0 -e 3600 -p5.555555555555555 <doubleminus>binomial 10 -odata/random/random_h_0-bcn_06.trips.rou.xml <doubleminus>edge-permission=passenger
-->
<routes xmlns:xsi="http://www.w3.org/2001/XMLSchema-instance" xsi:noNamespaceSchemaLocation="http://sumo.dlr.de/xsd/routes_file.xsd">
    <trip id="0h0" depart="1.00" from="L10K10" to="J1J0"/>
    <trip id="0h1" depart="9.00" from="K0K1" to="J1J0"/>
    <trip id="0h2" depart="12.00" from="C0C1" to="B10A10"/>
    <trip id="0h3" depart="26.00" from="L2K2" to="C10C11"/>
    <trip id="0h4" depart="28.00" from="L10K10" to="I10I11"/>
    <trip id="0h5" depart="28.00" from="A3B3" to="K5L5"/>
    <trip id="0h6" depart="35.00" from="L6K6" to="G10G11"/>
    <trip id="0h7" depart="38.00" from="C0C1" to="E10E11"/>
    <trip id="0h8" depart="41.00" from="K0K1" to="K1L1"/>
    <trip id="0h9" depart="46.00" from="D11D10" to="K10K11"/>
    <trip id="0h10" depart="57.00" from="L6K6" to="B1B0"/>
    <trip id="0h11" depart="61.00" from="G0G1" to="B8A8"/>
    <trip id="0h12" depart="66.00" from="F11F10" to="H1H0"/>
    <trip id="0h13" depart="85.00" from="L10K10" to="K5L5"/>
    <trip id="0h14" depart="92.00" from="G0G1" to="F1F0"/>
    <trip id="0h15" depart="99.00" from="L2K2" to="B4A4"/>
    <trip id="0h16" depart="100.00" from="L10K10" to="B8A8"/>
    <trip id="0h17" depart="109.00" from="L4K4" to="H1H0"/>
    <trip id="0h18" depart="113.00" from="C0C1" to="B6A6"/>
    <trip id="0h19" depart="113.00" from="K0K1" to="B4A4"/>
    <trip id="0h20" depart="135.00" from="A3B3" to="B8A8"/>
    <trip id="0h21" depart="136.00" from="G0G1" to="B8A8"/>
    <trip id="0h22" depart="138.00" from="L10K10" to="D1D0"/>
    <trip id="0h23" depart="176.00" from="G5G6" to="K7L7"/>
    <trip id="0h24" depart="178.00" from="H11H10" to="B2A2"/>
    <trip id="0h25" depart="182.00" from="I0I1" to="J1J0"/>
    <trip id="0h26" depart="190.00" from="A1B1" to="C10C11"/>
    <trip id="0h27" depart="192.00" from="A9B9" to="B2A2"/>
    <trip id="0h28" depart="199.00" from="L6K6" to="K9L9"/>
    <trip id="0h29" depart="205.00" from="G0G1" to="D1D0"/>
    <trip id="0h30" depart="206.00" from="G6G7" to="B10A10"/>
    <trip id="0h31" depart="206.00" from="L10K10" to="J1J0"/>
    <trip id="0h32" depart="208.00" from="A7B7" to="F9G9"/>
    <trip id="0h33" depart="215.00" from="C0C1" to="D1D0"/>
    <trip id="0h34" depart="226.00" from="B11B10" to="G10G11"/>
    <trip id="0h35" depart="235.00" from="A5B5" to="K3L3"/>
    <trip id="0h36" depart="244.00" from="L10K10" to="K10K11"/>
    <trip id="0h37" depart="246.00" from="L8K8" to="B6A6"/>
    <trip id="0h38" depart="248.00" from="F11F10" to="B2A2"/>
    <trip id="0h39" depart="249.00" from="J11J10" to="K3L3"/>
    <trip id="0h40" depart="250.00" from="I0I1" to="E4D4"/>
    <trip id="0h41" depart="255.00" from="A3B3" to="B8A8"/>
    <trip id="0h42" depart="265.00" from="A9B9" to="H1H0"/>
    <trip id="0h43" depart="266.00" from="E0E1" to="B6A6"/>
    <trip id="0h44" depart="266.00" from="I2I3" to="K3L3"/>
    <trip id="0h45" depart="273.00" from="L2K2" to="K9L9"/>
    <trip id="0h46" depart="283.00" from="L6K6" to="B6A6"/>
    <trip id="0h47" depart="289.00" from="D4D3" to="K10K11"/>
    <trip id="0h48" depart="311.00" from="L6K6" to="I10I11"/>
    <trip id="0h49" depart="311.00" from="B11B10" to="K1L1"/>
    <trip id="0h50" depart="321.00" from="B11B10" to="K10K11"/>
    <trip id="0h51" depart="322.00" from="C0C1" to="K3L3"/>
    <trip id="0h52" depart="330.00" from="J11J10" to="K7K8"/>
    <trip id="0h53" depart="341.00" from="A3B3" to="H4H3"/>
    <trip id="0h54" depart="354.00" from="B11B10" to="I10I11"/>
    <trip id="0h55" depart="360.00" from="J11J10" to="F10E10"/>
    <trip id="0h56" depart="362.00" from="A3B3" to="J1J0"/>
    <trip id="0h57" depart="365.00" from="J11J10" to="G10G11"/>
    <trip id="0h58" depart="368.00" from="H11H10" to="G10G11"/>
    <trip id="0h59" depart="372.00" from="B11B10" to="B6A6"/>
    <trip id="0h60" depart="391.00" from="I0I1" to="J1J0"/>
    <trip id="0h61" depart="394.00" from="A3B3" to="B4A4"/>
    <trip id="0h62" depart="397.00" from="A7B7" to="K9L9"/>
    <trip id="0h63" depart="402.00" from="L2K2" to="B8A8"/>
    <trip id="0h64" depart="408.00" from="A9B9" to="H1H0"/>
    <trip id="0h65" depart="422.00" from="L10K10" to="K3L3"/>
    <trip id="0h66" depart="422.00" from="L6K6" to="K7L7"/>
    <trip id="0h67" depart="422.00" from="E0E1" to="C10C11"/>
    <trip id="0h68" depart="422.00" from="D11D10" to="E10E11"/>
    <trip id="0h69" depart="431.00" from="A1B1" to="K1L1"/>
    <trip id="0h70" depart="435.00" from="I0I1" to="D1D0"/>
    <trip id="0h71" depart="450.00" from="L10K10" to="D1D0"/>
    <trip id="0h72" depart="456.00" from="J11J10" to="B2A2"/>
    <trip id="0h73" depart="458.00" from="D7E7" to="B8A8"/>
    <trip id="0h74" depart="469.00" from="B11B10" to="E10E11"/>
    <trip id="0h75" depart="478.00" from="L4K4" to="B8A8"/>
    <trip id="0h76" depart="485.00" from="A1B1" to="I10I11"/>
    <trip id="0h77" depart="486.00" from="A9B9" to="B9C9"/>
    <trip id="0h78" depart="487.00" from="J11J10" to="D1D0"/>
    <trip id="0h79" depart="494.00" from="L6K6" to="J1J0"/>
    <trip id="0h80" depart="496.00" from="I0I1" to="G10G11"/>
    <trip id="0h81" depart="506.00" from="A7B7" to="B4A4"/>
    <trip id="0h82" depart="508.00" from="L8K8" to="E10E11"/>
    <trip id="0h83" depart="511.00" from="K0K1" to="F1F0"/>
    <trip id="0h84" depart="518.00" from="A5B5" to="B4A4"/>
    <trip id="0h85" depart="522.00" from="L6K6" to="F1F0"/>
    <trip id="0h86" depart="525.00" from="A5B5" to="B2A2"/>
    <trip id="0h87" depart="532.00" from="L8K8" to="K3L3"/>
    <trip id="0h88" depart="542.00" from="F11F10" to="B10A10"/>
    <trip id="0h89" depart="544.00" from="B11B10" to="B2A2"/>
    <trip id="0h90" depart="553.00" from="L8K8" to="B10A10"/>
    <trip id="0h91" depart="554.00" from="K0K1" to="K7L7"/>
    <trip id="0h92" depart="569.00" from="K0K1" to="K9L9"/>
    <trip id="0h93" depart="578.00" from="B11B10" to="K9L9"/>
    <trip id="0h94" depart="583.00" from="G0G1" to="D1D0"/>
    <trip id="0h95" depart="590.00" from="A9B9" to="B6A6"/>
    <trip id="0h96" depart="633.00" from="A5B5" to="C10C11"/>
    <trip id="0h97" depart="644.00" from="L8K8" to="I1J1"/>
    <trip id="0h98" depart="653.00" from="A5B5" to="B4A4"/>
    <trip id="0h99" depart="655.00" from="A5B5" to="B10A10"/>
    <trip id="0h100" depart="657.00" from="I0I1" to="J4I4"/>
    <trip id="0h101" depart="671.00" from="L10K10" to="K7L7"/>
    <trip id="0h102" depart="673.00" from="B7B6" to="G10G11"/>
    <trip id="0h103" depart="696.00" from="F11F10" to="K3L3"/>
    <trip id="0h104" depart="697.00" from="L6K6" to="F1F0"/>
    <trip id="0h105" depart="700.00" from="J11J10" to="I10I11"/>
    <trip id="0h106" depart="700.00" from="F11F10" to="K5L5"/>
    <trip id="0h107" depart="702.00" from="F11F10" to="K7L7"/>
    <trip id="0h108" depart="708.00" from="A9B9" to="B1B0"/>
    <trip id="0h109" depart="713.00" from="D2C2" to="K1L1"/>
    <trip id="0h110" depart="717.00" from="H11H10" to="J1J0"/>
    <trip id="0h111" depart="719.00" from="A9B9" to="B6A6"/>
    <trip id="0h112" depart="733.00" from="C0C1" to="K3L3"/>
    <trip id="0h113" depart="736.00" from="L10K10" to="K3L3"/>
    <trip id="0h114" depart="742.00" from="A7B7" to="B1B0"/>
    <trip id="0h115" depart="748.00" from="A5B5" to="K7L7"/>
    <trip id="0h116" depart="751.00" from="L10K10" to="K1L1"/>
    <trip id="0h117" depart="762.00" from="L4K4" to="B1B0"/>
    <trip id="0h118" depart="767.00" from="G0G1" to="K10K11"/>
    <trip id="0h119" depart="771.00" from="L10K10" to="I10I11"/>
    <trip id="0h120" depart="774.00" from="A3B3" to="J1J0"/>
    <trip id="0h121" depart="777.00" from="H11H10" to="K9L9"/>
    <trip id="0h122" depart="777.00" from="H3H2" to="K9L9"/>
    <trip id="0h123" depart="781.00" from="D11D10" to="B10A10"/>
    <trip id="0h124" depart="789.00" from="A3B3" to="G10G11"/>
    <trip id="0h125" depart="796.00" from="K0K1" to="H1H0"/>
    <trip id="0h126" depart="805.00" from="C0C1" to="K7L7"/>
    <trip id="0h127" depart="811.00" from="D11D10" to="K9L9"/>
    <trip id="0h128" depart="814.00" from="G0G1" to="B4A4"/>
    <trip id="0h129" depart="823.00" from="L4K4" to="B4B3"/>
    <trip id="0h130" depart="835.00" from="G6G7" to="K5L5"/>
    <trip id="0h131" depart="844.00" from="D11D10" to="H5I5"/>
    <trip id="0h132" depart="851.00" from="L8K8" to="K9L9"/>
    <trip id="0h133" depart="857.00" from="L6K6" to="B4A4"/>
    <trip id="0h134" depart="860.00" from="L8K8" to="B10A10"/>
    <trip id="0h135" depart="866.00" from="L2K2" to="J1J0"/>
    <trip id="0h136" depart="871.00" from="D11D10" to="C10C11"/>
    <trip id="0h137" depart="880.00" from="L2K2" to="C10C11"/>
    <trip id="0h138" depart="886.00" from="L10K10" to="H1H0"/>
    <trip id="0h139" depart="888.00" from="F11F10" to="K3L3"/>
    <trip id="0h140" depart="890.00" from="L10K10" to="B10A10"/>
    <trip id="0h141" depart="895.00" from="D11D10" to="B6A6"/>
    <trip id="0h142" depart="896.00" from="A7B7" to="D1D0"/>
    <trip id="0h143" depart="904.00" from="A7B7" to="H1H0"/>
    <trip id="0h144" depart="912.00" from="C1D1" to="F1F0"/>
    <trip id="0h145" depart="918.00" from="A5B5" to="C10C11"/>
    <trip id="0h146" depart="923.00" from="A9B9" to="K3L3"/>
    <trip id="0h147" depart="932.00" from="F11F10" to="C7D7"/>
    <trip id="0h148" depart="934.00" from="D11D10" to="J1J0"/>
    <trip id="0h149" depart="940.00" from="A1B1" to="C10C11"/>
    <trip id="0h150" depart="941.00" from="B11B10" to="D1D0"/>
    <trip id="0h151" depart="947.00" from="L10K10" to="K5L5"/>
    <trip id="0h152" depart="950.00" from="F11F10" to="J1J0"/>
    <trip id="0h153" depart="950.00" from="H4G4" to="B2A2"/>
    <trip id="0h154" depart="954.00" from="C0C1" to="I10I11"/>
    <trip id="0h155" depart="974.00" from="K0K1" to="K3L3"/>
    <trip id="0h156" depart="983.00" from="L10K10" to="K7L7"/>
    <trip id="0h157" depart="998.00" from="A5B5" to="B8A8"/>
    <trip id="0h158" depart="1007.00" from="L2K2" to="B10A10"/>
    <trip id="0h159" depart="1011.00" from="A5B5" to="D1D0"/>
    <trip id="0h160" depart="1012.00" from="A3B3" to="H1H0"/>
    <trip id="0h161" depart="1023.00" from="L2K2" to="H5H4"/>
    <trip id="0h162" depart="1025.00" from="F6F5" to="E10E11"/>
    <trip id="0h163" depart="1029.00" from="J11J10" to="K10K11"/>
    <trip id="0h164" depart="1034.00" from="E0E1" to="B4A4"/>
    <trip id="0h165" depart="1043.00" from="E6D6" to="G10G11"/>
    <trip id="0h166" depart="1043.00" from="C0C1" to="B2A2"/>
    <trip id="0h167" depart="1047.00" from="L2K2" to="K3L3"/>
    <trip id="0h168" depart="1050.00" from="B11B10" to="D1D0"/>
    <trip id="0h169" depart="1057.00" from="E0E1" to="C8B8"/>
    <trip id="0h170" depart="1062.00" from="A7B7" to="K5L5"/>
    <trip id="0h171" depart="1068.00" from="C0C1" to="H1H0"/>
    <trip id="0h172" depart="1073.00" from="C0C1" to="I10I11"/>
    <trip id="0h173" depart="1081.00" from="D11D10" to="D1D0"/>
    <trip id="0h174" depart="1093.00" from="A1B1" to="J1J0"/>
    <trip id="0h175" depart="1102.00" from="L6K6" to="D1D0"/>
    <trip id="0h176" depart="1109.00" from="K0K1" to="H1H0"/>
    <trip id="0h177" depart="1124.00" from="E1E2" to="B10A10"/>
    <trip id="0h178" depart="1127.00" from="L2K2" to="B10A10"/>
    <trip id="0h179" depart="1134.00" from="L10K10" to="E10E11"/>
    <trip id="0h180" depart="1139.00" from="L4K4" to="B1B0"/>
    <trip id="0h181" depart="1150.00" from="K0K1" to="D1D0"/>
    <trip id="0h182" depart="1153.00" from="B11B10" to="H1H0"/>
    <trip id="0h183" depart="1156.00" from="A5B5" to="C10C11"/>
    <trip id="0h184" depart="1173.00" from="B11B10" to="B10A10"/>
    <trip id="0h185" depart="1181.00" from="I0I1" to="J3J2"/>
    <trip id="0h186" depart="1185.00" from="D3D2" to="B10A10"/>
    <trip id="0h187" depart="1197.00" from="L6K6" to="B6A6"/>
    <trip id="0h188" depart="1197.00" from="B11B10" to="K3L3"/>
    <trip id="0h189" depart="1218.00" from="L2K2" to="B1B0"/>
    <trip id="0h190" depart="1225.00" from="L4K4" to="E10E11"/>
    <trip id="0h191" depart="1231.00" from="A1B1" to="K1L1"/>
    <trip id="0h192" depart="1232.00" from="L10K10" to="B6B5"/>
    <trip id="0h193" depart="1234.00" from="A7B7" to="B6A6"/>
    <trip id="0h194" depart="1237.00" from="K0K1" to="B1B0"/>
    <trip id="0h195" depart="1241.00" from="L10K10" to="I7J7"/>
    <trip id="0h196" depart="1244.00" from="C0C1" to="B4A4"/>
    <trip id="0h197" depart="1252.00" from="B11B10" to="B4A4"/>
    <trip id="0h198" depart="1261.00" from="J11J10" to="H1H0"/>
    <trip id="0h199" depart="1267.00" from="A1B1" to="B1B0"/>
    <trip id="0h200" depart="1267.00" from="B11B10" to="B10A10"/>
    <trip id="0h201" depart="1271.00" from="L4K4" to="I2H2"/>
    <trip id="0h202" depart="1281.00" from="L10K10" to="G10G11"/>
    <trip id="0h203" depart="1287.00" from="A5B5" to="K5L5"/>
    <trip id="0h204" depart="1289.00" from="L10K10" to="K1L1"/>
    <trip id="0h205" depart="1295.00" from="A3B3" to="K1L1"/>
    <trip id="0h206" depart="1295.00" from="L4K4" to="B2A2"/>
    <trip id="0h207" depart="1308.00" from="A9B9" to="K7L7"/>
    <trip id="0h208" depart="1311.00" from="D11D10" to="I10I11"/>
    <trip id="0h209" depart="1325.00" from="L2K2" to="K1L1"/>
    <trip id="0h210" depart="1327.00" from="F11F10" to="K1L1"/>
    <trip id="0h211" depart="1330.00" from="E0E1" to="I10I11"/>
    <trip id="0h212" depart="1330.00" from="A9B9" to="E3E4"/>
    <trip id="0h213" depart="1338.00" from="A3B3" to="K4K5"/>
    <trip id="0h214" depart="1346.00" from="G0G1" to="F1G1"/>
    <trip id="0h215" depart="1347.00" from="A7B7" to="B2A2"/>
    <trip id="0h216" depart="1356.00" from="L10K10" to="K9L9"/>
    <trip id="0h217" depart="1358.00" from="F11F10" to="K3L3"/>
    <trip id="0h218" depart="1367.00" from="B11B10" to="K1L1"/>
    <trip id="0h219" depart="1373.00" from="D11D10" to="K9L9"/>
    <trip id="0h220" depart="1382.00" from="A9B9" to="J1J0"/>
    <trip id="0h221" depart="1383.00" from="G0G1" to="B8A8"/>
    <trip id="0h222" depart="1387.00" from="A5B5" to="B6A6"/>
    <trip id="0h223" depart="1395.00" from="L8K8" to="C10C11"/>
    <trip id="0h224" depart="1395.00" from="A9B9" to="B2A2"/>
    <trip id="0h225" depart="1402.00" from="J11J10" to="K7L7"/>
    <trip id="0h226" depart="1414.00" from="A1B1" to="J1J0"/>
    <trip id="0h227" depart="1418.00" from="B11B10" to="B8A8"/>
    <trip id="0h228" depart="1421.00" from="I0I1" to="I10I11"/>
    <trip id="0h229" depart="1422.00" from="I0I1" to="B8A8"/>
    <trip id="0h230" depart="1434.00" from="A9B9" to="K3L3"/>
    <trip id="0h231" depart="1436.00" from="I0I1" to="B6A6"/>
    <trip id="0h232" depart="1441.00" from="A1B1" to="B6A6"/>
    <trip id="0h233" depart="1454.00" from="L2K2" to="C10C11"/>
    <trip id="0h234" depart="1454.00" from="D11D10" to="E10E11"/>
    <trip id="0h235" depart="1459.00" from="J11J10" to="G10G11"/>
    <trip id="0h236" depart="1462.00" from="F4F3" to="E7E8"/>
    <trip id="0h237" depart="1476.00" from="G0G1" to="B1B0"/>
    <trip id="0h238" depart="1476.00" from="C8C9" to="K9L9"/>
    <trip id="0h239" depart="1479.00" from="A7B7" to="K5L5"/>
    <trip id="0h240" depart="1485.00" from="I0I1" to="J1J0"/>
    <trip id="0h241" depart="1492.00" from="C0C1" to="F1F0"/>
    <trip id="0h242" depart="1504.00" from="D11D10" to="B10A10"/>
    <trip id="0h243" depart="1506.00" from="D11D10" to="G10G11"/>
    <trip id="0h244" depart="1508.00" from="C0C1" to="B1C1"/>
    <trip id="0h245" depart="1508.00" from="A3B3" to="B8A8"/>
    <trip id="0h246" depart="1525.00" from="E0E1" to="F1F0"/>
    <trip id="0h247" depart="1531.00" from="J11J10" to="K9L9"/>
    <trip id="0h248" depart="1533.00" from="A5B5" to="K9L9"/>
    <trip id="0h249" depart="1545.00" from="A9B9" to="J1J0"/>
    <trip id="0h250" depart="1549.00" from="B11B10" to="K9L9"/>
    <trip id="0h251" depart="1554.00" from="J2J1" to="K7L7"/>
    <trip id="0h252" depart="1559.00" from="A7B7" to="K2K3"/>
    <trip id="0h253" depart="1566.00" from="H11H10" to="B2A2"/>
    <trip id="0h254" depart="1583.00" from="L10K10" to="C10C11"/>
    <trip id="0h255" depart="1589.00" from="F11F10" to="G10G11"/>
    <trip id="0h256" depart="1590.00" from="L10K10" to="F10F9"/>
    <trip id="0h257" depart="1599.00" from="L2K2" to="K5L5"/>
    <trip id="0h258" depart="1602.00" from="J11J10" to="K10K11"/>
    <trip id="0h259" depart="1608.00" from="B11B10" to="K5L5"/>
    <trip id="0h260" depart="1608.00" from="J11J10" to="D4D3"/>
    <trip id="0h261" depart="1609.00" from="A3B3" to="C10C11"/>
    <trip id="0h262" depart="1612.00" from="L2K2" to="E10E11"/>
    <trip id="0h263" depart="1614.00" from="I0I1" to="K7L7"/>
    <trip id="0h264" depart="1615.00" from="L10K10" to="K10K11"/>
    <trip id="0h265" depart="1619.00" from="L8K8" to="G8G9"/>
    <trip id="0h266" depart="1620.00" from="L6K6" to="K5L5"/>
    <trip id="0h267" depart="1627.00" from="A3B3" to="G10G11"/>
    <trip id="0h268" depart="1631.00" from="L8K8" to="B8A8"/>
    <trip id="0h269" depart="1643.00" from="A3B3" to="B2A2"/>
    <trip id="0h270" depart="1647.00" from="E0E1" to="K9L9"/>
    <trip id="0h271" depart="1648.00" from="J11J10" to="H1H0"/>
    <trip id="0h272" depart="1648.00" from="D11D10" to="K7L7"/>
    <trip id="0h273" depart="1653.00" from="F11F10" to="D1D0"/>
    <trip id="0h274" depart="1656.00" from="K10J10" to="G10G11"/>
    <trip id="0h275" depart="1661.00" from="E9E10" to="B1B0"/>
    <trip id="0h276" depart="1669.00" from="A5B5" to="I10I11"/>
    <trip id="0h277" depart="1669.00" from="A1B1" to="B6A6"/>
    <trip id="0h278" depart="1678.00" from="I0I1" to="D1D0"/>
    <trip id="0h279" depart="1703.00" from="D11D10" to="F1F0"/>
    <trip id="0h280" depart="1713.00" from="I5J5" to="B6A6"/>
    <trip id="0h281" depart="1716.00" from="L6K6" to="B1B0"/>
    <trip id="0h282" depart="1717.00" from="A5B5" to="B8A8"/>
    <trip id="0h283" depart="1717.00" from="I0I1" to="I10I11"/>
    <trip id="0h284" depart="1724.00" from="E0E1" to="H1H0"/>
    <trip id="0h285" depart="1734.00" from="L4K4" to="H1H0"/>
    <trip id="0h286" depart="1748.00" from="L2K2" to="B4A4"/>
    <trip id="0h287" depart="1751.00" from="F11F10" to="B4A4"/>
    <trip id="0h288" depart="1761.00" from="G0G1" to="B6A6"/>
    <trip id="0h289" depart="1772.00" from="K0K1" to="B2A2"/>
    <trip id="0h290" depart="1772.00" from="L10K10" to="B4A4"/>
    <trip id="0h291" depart="1778.00" from="A1B1" to="K7L7"/>
    <trip id="0h292" depart="1779.00" from="I0I1" to="C10C11"/>
    <trip id="0h293" depart="1787.00" from="L4K4" to="G10G11"/>
    <trip id="0h294" depart="1791.00" from="E8E9" to="C10C11"/>
    <trip id="0h295" depart="1797.00" from="L4K4" to="H1H0"/>
    <trip id="0h296" depart="1800.00" from="L8K8" to="D1D0"/>
    <trip id="0h297" depart="1808.00" from="L2K2" to="K9L9"/>
    <trip id="0h298" depart="1817.00" from="L2K2" to="E10E11"/>
    <trip id="0h299" depart="1827.00" from="C1C2" to="H1H0"/>
    <trip id="0h300" depart="1833.00" from="L8K8" to="G10G11"/>
    <trip id="0h301" depart="1840.00" from="L6K6" to="C10C11"/>
    <trip id="0h302" depart="1843.00" from="A7B7" to="E10E11"/>
    <trip id="0h303" depart="1845.00" from="A7B7" to="G10G11"/>
    <trip id="0h304" depart="1852.00" from="K0K1" to="B1B0"/>
    <trip id="0h305" depart="1859.00" from="F11F10" to="H5H4"/>
    <trip id="0h306" depart="1862.00" from="B11B10" to="B8A8"/>
    <trip id="0h307" depart="1864.00" from="D11D10" to="B6A6"/>
    <trip id="0h308" depart="1873.00" from="A3B3" to="B4A4"/>
    <trip id="0h309" depart="1874.00" from="L4K4" to="B10A10"/>
    <trip id="0h310" depart="1875.00" from="G0G1" to="H1H0"/>
    <trip id="0h311" depart="1881.00" from="D11D10" to="C10C11"/>
    <trip id="0h312" depart="1886.00" from="C0C1" to="B4A4"/>
    <trip id="0h313" depart="1887.00" from="J11J10" to="K5L5"/>
    <trip id="0h314" depart="1892.00" from="F9F8" to="K10K11"/>
    <trip id="0h315" depart="1901.00" from="J11J10" to="B7B6"/>
    <trip id="0h316" depart="1904.00" from="L6K6" to="F6E6"/>
    <trip id="0h317" depart="1909.00" from="A5B5" to="B6A6"/>
    <trip id="0h318" depart="1910.00" from="A5B5" to="F1F0"/>
    <trip id="0h319" depart="1913.00" from="L10K10" to="G1H1"/>
    <trip id="0h320" depart="1913.00" from="I0I1" to="J1J0"/>
    <trip id="0h321" depart="1917.00" from="L6K6" to="B6A6"/>
    <trip id="0h322" depart="1919.00" from="L6K6" to="K10K11"/>
    <trip id="0h323" depart="1927.00" from="A9B9" to="E6E7"/>
    <trip id="0h324" depart="1929.00" from="I0I1" to="D1D0"/>
    <trip id="0h325" depart="1934.00" from="A9B9" to="I1J1"/>
    <trip id="0h326" depart="1943.00" from="A9B9" to="H1H0"/>
    <trip id="0h327" depart="1948.00" from="K0K1" to="K9L9"/>
    <trip id="0h328" depart="1948.00" from="J6I6" to="B2A2"/>
    <trip id="0h329" depart="1950.00" from="A7B7" to="D1D0"/>
    <trip id="0h330" depart="1953.00" from="G0G1" to="D1D0"/>
    <trip id="0h331" depart="1967.00" from="G0G1" to="E10E11"/>
    <trip id="0h332" depart="1974.00" from="A3B3" to="K9L9"/>
    <trip id="0h333" depart="1976.00" from="H11H10" to="B6A6"/>
    <trip id="0h334" depart="1977.00" from="L6K6" to="I10I11"/>
    <trip id="0h335" depart="1984.00" from="D11D10" to="G10G11"/>
    <trip id="0h336" depart="1985.00" from="L10K10" to="H1H0"/>
    <trip id="0h337" depart="1989.00" from="G0G1" to="C8B8"/>
    <trip id="0h338" depart="1998.00" from="A9B9" to="K1L1"/>
    <trip id="0h339" depart="2002.00" from="B11B10" to="H7I7"/>
    <trip id="0h340" depart="2004.00" from="I0I1" to="K9K10"/>
    <trip id="0h341" depart="2006.00" from="L6K6" to="K1L1"/>
    <trip id="0h342" depart="2011.00" from="A1B1" to="B2A2"/>
    <trip id="0h343" depart="2011.00" from="I0I1" to="F1F0"/>
    <trip id="0h344" depart="2012.00" from="A7B7" to="K10K11"/>
    <trip id="0h345" depart="2015.00" from="L6K6" to="C10C11"/>
    <trip id="0h346" depart="2020.00" from="E0E1" to="B1B0"/>
    <trip id="0h347" depart="2033.00" from="B11B10" to="K7L7"/>
    <trip id="0h348" depart="2034.00" from="F5G5" to="F5F4"/>
    <trip id="0h349" depart="2036.00" from="B11B10" to="E10E11"/>
    <trip id="0h350" depart="2040.00" from="D11D10" to="K10K11"/>
    <trip id="0h351" depart="2041.00" from="B11B10" to="K3L3"/>
    <trip id="0h352" depart="2041.00" from="C0C1" to="K5L5"/>
    <trip id="0h353" depart="2050.00" from="F11F10" to="B8A8"/>
    <trip id="0h354" depart="2055.00" from="A1B1" to="K10K11"/>
    <trip id="0h355" depart="2056.00" from="G0G1" to="B2A2"/>
    <trip id="0h356" depart="2060.00" from="H11H10" to="K10J10"/>
    <trip id="0h357" depart="2062.00" from="L8K8" to="E10E11"/>
    <trip id="0h358" depart="2063.00" from="A9B9" to="K1L1"/>
    <trip id="0h359" depart="2064.00" from="E5E6" to="J1J0"/>
    <trip id="0h360" depart="2069.00" from="J11J10" to="B1B0"/>
    <trip id="0h361" depart="2069.00" from="I0I1" to="H1H0"/>
    <trip id="0h362" depart="2075.00" from="J11J10" to="C4C5"/>
    <trip id="0h363" depart="2076.00" from="L2K2" to="K1L1"/>
    <trip id="0h364" depart="2078.00" from="H11H10" to="B1B0"/>
    <trip id="0h365" depart="2087.00" from="J11J10" to="B4A4"/>
    <trip id="0h366" depart="2093.00" from="I0I1" to="K7L7"/>
    <trip id="0h367" depart="2096.00" from="A3B3" to="G10G11"/>
    <trip id="0h368" depart="2098.00" from="L10K10" to="K3L3"/>
    <trip id="0h369" depart="2101.00" from="K8K9" to="I10I11"/>
    <trip id="0h370" depart="2102.00" from="C0C1" to="B10A10"/>
    <trip id="0h371" depart="2106.00" from="A9B9" to="C10C11"/>
    <trip id="0h372" depart="2107.00" from="G0G1" to="K10K11"/>
    <trip id="0h373" depart="2143.00" from="L8K8" to="K10K11"/>
    <trip id="0h374" depart="2151.00" from="F11F10" to="B8A8"/>
    <trip id="0h375" depart="2153.00" from="A1B1" to="C10C11"/>
    <trip id="0h376" depart="2155.00" from="L10K10" to="B1B0"/>
    <trip id="0h377" depart="2156.00" from="L4K4" to="K3L3"/>
    <trip id="0h378" depart="2157.00" from="A1B1" to="B4A4"/>
    <trip id="0h379" depart="2164.00" from="B11B10" to="G10G11"/>
    <trip id="0h380" depart="2176.00" from="A5B5" to="G10G11"/>
    <trip id="0h381" depart="2179.00" from="E0E1" to="H1H0"/>
    <trip id="0h382" depart="2185.00" from="C0C1" to="I10I11"/>
    <trip id="0h383" depart="2190.00" from="A5B5" to="K6K7"/>
    <trip id="0h384" depart="2190.00" from="L8K8" to="G10G11"/>
    <trip id="0h385" depart="2200.00" from="L2K2" to="G10G11"/>
    <trip id="0h386" depart="2201.00" from="I0I1" to="K3L3"/>
    <trip id="0h387" depart="2206.00" from="L6K6" to="C10C11"/>
    <trip id="0h388" depart="2212.00" from="L10K10" to="G7H7"/>
    <trip id="0h389" depart="2214.00" from="A3B3" to="B1B0"/>
    <trip id="0h390" depart="2217.00" from="C0C1" to="B4A4"/>
    <trip id="0h391" depart="2218.00" from="A1B1" to="B1B0"/>
    <trip id="0h392" depart="2224.00" from="A9B9" to="B2A2"/>
    <trip id="0h393" depart="2225.00" from="A7B7" to="E10E11"/>
    <trip id="0h394" depart="2226.00" from="I0I1" to="B4A4"/>
    <trip id="0h395" depart="2242.00" from="E0E1" to="B2A2"/>
    <trip id="0h396" depart="2246.00" from="L6K6" to="K9L9"/>
    <trip id="0h397" depart="2249.00" from="A9B9" to="I10I11"/>
    <trip id="0h398" depart="2250.00" from="A3B3" to="B2A2"/>
    <trip id="0h399" depart="2255.00" from="A5B5" to="C5C6"/>
    <trip id="0h400" depart="2258.00" from="L6K6" to="G10G11"/>
    <trip id="0h401" depart="2266.00" from="L10K10" to="D1D0"/>
    <trip id="0h402" depart="2274.00" from="I0I1" to="D1D0"/>
    <trip id="0h403" depart="2276.00" from="A1B1" to="J1J0"/>
    <trip id="0h404" depart="2283.00" from="L10K10" to="J1J0"/>
    <trip id="0h405" depart="2286.00" from="L4K4" to="B1B0"/>
    <trip id="0h406" depart="2286.00" from="L6K6" to="K3L3"/>
    <trip id="0h407" depart="2290.00" from="D11D10" to="J9J8"/>
    <trip id="0h408" depart="2296.00" from="J11J10" to="B6A6"/>
    <trip id="0h409" depart="2297.00" from="C0C1" to="H1H0"/>
    <trip id="0h410" depart="2303.00" from="A7B7" to="B6A6"/>
    <trip id="0h411" depart="2305.00" from="L6K6" to="I10I11"/>
    <trip id="0h412" depart="2312.00" from="G0G1" to="H9I9"/>
    <trip id="0h413" depart="2314.00" from="F11F10" to="B8B7"/>
    <trip id="0h414" depart="2316.00" from="H11H10" to="B10A10"/>
    <trip id="0h415" depart="2317.00" from="L8K8" to="B10A10"/>
    <trip id="0h416" depart="2325.00" from="I0I1" to="B1B0"/>
    <trip id="0h417" depart="2336.00" from="I0I1" to="D1D0"/>
    <trip id="0h418" depart="2337.00" from="L8K8" to="B10A10"/>
    <trip id="0h419" depart="2344.00" from="K0K1" to="H1H0"/>
    <trip id="0h420" depart="2374.00" from="L10K10" to="F1F0"/>
    <trip id="0h421" depart="2377.00" from="L6K6" to="C10C11"/>
    <trip id="0h422" depart="2381.00" from="H11H10" to="E3E4"/>
    <trip id="0h423" depart="2387.00" from="E0E1" to="B4A4"/>
    <trip id="0h424" depart="2393.00" from="K0K1" to="K1L1"/>
    <trip id="0h425" depart="2395.00" from="J11J10" to="F1F0"/>
    <trip id="0h426" depart="2405.00" from="C0C1" to="K7L7"/>
    <trip id="0h427" depart="2417.00" from="L8K8" to="B8A8"/>
    <trip id="0h428" depart="2421.00" from="D11D10" to="B2A2"/>
    <trip id="0h429" depart="2421.00" from="I0I1" to="B1B0"/>
    <trip id="0h430" depart="2422.00" from="A7B7" to="J1J0"/>
    <trip id="0h431" depart="2425.00" from="L4K4" to="K5L5"/>
    <trip id="0h432" depart="2427.00" from="D11D10" to="D1D0"/>
    <trip id="0h433" depart="2435.00" from="E5E6" to="B1B0"/>
    <trip id="0h434" depart="2442.00" from="H11H10" to="B3B2"/>
    <trip id="0h435" depart="2446.00" from="D11D10" to="C10C11"/>
    <trip id="0h436" depart="2452.00" from="C2B2" to="K10K11"/>
    <trip id="0h437" depart="2467.00" from="A9B9" to="K7L7"/>
    <trip id="0h438" depart="2469.00" from="B11B10" to="B4A4"/>
    <trip id="0h439" depart="2484.00" from="L10K10" to="K10K11"/>
    <trip id="0h440" depart="2514.00" from="B3C3" to="B2A2"/>
    <trip id="0h441" depart="2515.00" from="A7B7" to="E10E11"/>
    <trip id="0h442" depart="2516.00" from="L4K4" to="K7L7"/>
    <trip id="0h443" depart="2519.00" from="A9B9" to="K1L1"/>
    <trip id="0h444" depart="2521.00" from="A5B5" to="E10E11"/>
    <trip id="0h445" depart="2539.00" from="A7B7" to="D1D0"/>
    <trip id="0h446" depart="2547.00" from="K0K1" to="F1F0"/>
    <trip id="0h447" depart="2550.00" from="L8K8" to="G10G11"/>
    <trip id="0h448" depart="2554.00" from="B11B10" to="I10I11"/>
    <trip id="0h449" depart="2562.00" from="A3B3" to="J1J0"/>
    <trip id="0h450" depart="2569.00" from="K0K1" to="B4A4"/>
    <trip id="0h451" depart="2584.00" from="E0E1" to="B1B0"/>
    <trip id="0h452" depart="2590.00" from="L6K6" to="J5K5"/>
    <trip id="0h453" depart="2590.00" from="I0I1" to="G9G10"/>
    <trip id="0h454" depart="2591.00" from="G0G1" to="K10K11"/>
    <trip id="0h455" depart="2606.00" from="A3B3" to="E10E11"/>
    <trip id="0h456" depart="2611.00" from="A3B3" to="B8A8"/>
    <trip id="0h457" depart="2615.00" from="C0C1" to="B10A10"/>
    <trip id="0h458" depart="2615.00" from="K0K1" to="K1L1"/>
    <trip id="0h459" depart="2618.00" from="L6K6" to="B8A8"/>
    <trip id="0h460" depart="2619.00" from="A7B7" to="K10K11"/>
    <trip id="0h461" depart="2622.00" from="I0I1" to="E10E11"/>
    <trip id="0h462" depart="2635.00" from="L4K4" to="H1H0"/>
    <trip id="0h463" depart="2645.00" from="B11B10" to="B6A6"/>
    <trip id="0h464" depart="2653.00" from="I0I1" to="D1D0"/>
    <trip id="0h465" depart="2660.00" from="I0I1" to="K3L3"/>
    <trip id="0h466" depart="2663.00" from="E0E1" to="K9L9"/>
    <trip id="0h467" depart="2664.00" from="L4K4" to="J1J0"/>
    <trip id="0h468" depart="2668.00" from="A5B5" to="B2A2"/>
    <trip id="0h469" depart="2674.00" from="K0K1" to="F1F0"/>
    <trip id="0h470" depart="2680.00" from="G0G1" to="B8A8"/>