<?xml version="1.0" encoding="UTF-8"?>
<!-- generated on 2020-12-09 02:55:06.195987 by randomTrips.py v1_7_0+0000-714814baed
  options: -n .\data/grid01-bcn_06.net.xml <doubleminus>prefix=9h <doubleminus>fringe-factor 100 -b 32400 -e 36000 -p0.17754981258630895 <doubleminus>binomial 10 -odata/random/random_h_9-bcn_06.trips.rou.xml <doubleminus>edge-permission=passenger
-->
<routes xmlns:xsi="http://www.w3.org/2001/XMLSchema-instance" xsi:noNamespaceSchemaLocation="http://sumo.dlr.de/xsd/routes_file.xsd">
    <trip id="9h0" depart="32400.00" from="B11B10" to="B6A6"/>
    <trip id="9h1" depart="32400.00" from="E0E1" to="B10A10"/>
    <trip id="9h2" depart="32400.00" from="G0G1" to="B10A10"/>
    <trip id="9h3" depart="32400.00" from="I0I1" to="G10G11"/>
    <trip id="9h4" depart="32400.00" from="H11H10" to="K1L1"/>
    <trip id="9h5" depart="32400.00" from="L10K10" to="J1J0"/>
    <trip id="9h6" depart="32401.00" from="A7B7" to="K9L9"/>
    <trip id="9h7" depart="32401.00" from="A5B5" to="B2A2"/>
    <trip id="9h8" depart="32401.00" from="L8K8" to="D1D0"/>
    <trip id="9h9" depart="32401.00" from="L2K2" to="I10I11"/>
    <trip id="9h10" depart="32402.00" from="A9B9" to="C10C11"/>
    <trip id="9h11" depart="32402.00" from="B11B10" to="B2A2"/>
    <trip id="9h12" depart="32402.00" from="I0I1" to="D1D0"/>
    <trip id="9h13" depart="32402.00" from="A9B9" to="B8A8"/>
    <trip id="9h14" depart="32402.00" from="K0K1" to="B4A4"/>
    <trip id="9h15" depart="32402.00" from="L8K8" to="I10I11"/>
    <trip id="9h16" depart="32403.00" from="J11J10" to="K3L3"/>
    <trip id="9h17" depart="32403.00" from="A1B1" to="C10C11"/>
    <trip id="9h18" depart="32403.00" from="A9B9" to="K7L7"/>
    <trip id="9h19" depart="32403.00" from="I10H10" to="E10E11"/>
    <trip id="9h20" depart="32403.00" from="B11B10" to="B8A8"/>
    <trip id="9h21" depart="32403.00" from="B11B10" to="H1H0"/>
    <trip id="9h22" depart="32404.00" from="A9B9" to="K9L9"/>
    <trip id="9h23" depart="32404.00" from="A3B3" to="B1B0"/>
    <trip id="9h24" depart="32404.00" from="I0I1" to="K1L1"/>
    <trip id="9h25" depart="32404.00" from="A3B3" to="D1D0"/>
    <trip id="9h26" depart="32404.00" from="L8K8" to="K5L5"/>
    <trip id="9h27" depart="32404.00" from="K0K1" to="J1J0"/>
    <trip id="9h28" depart="32404.00" from="B11B10" to="I10I11"/>
    <trip id="9h29" depart="32404.00" from="E0E1" to="F1F0"/>
    <trip id="9h30" depart="32405.00" from="G0G1" to="B4A4"/>
    <trip id="9h31" depart="32405.00" from="I0I1" to="H9I9"/>
    <trip id="9h32" depart="32405.00" from="K0K1" to="G10G11"/>
    <trip id="9h33" depart="32405.00" from="A1B1" to="C10C11"/>
    <trip id="9h34" depart="32405.00" from="L6K6" to="K5L5"/>
    <trip id="9h35" depart="32406.00" from="A3B3" to="K5L5"/>
    <trip id="9h36" depart="32406.00" from="F11F10" to="B1B0"/>
    <trip id="9h37" depart="32406.00" from="F11F10" to="G4G5"/>
    <trip id="9h38" depart="32406.00" from="L4K4" to="E10E11"/>
    <trip id="9h39" depart="32406.00" from="G0G1" to="K10K11"/>
    <trip id="9h40" depart="32406.00" from="C0C1" to="K9L9"/>
    <trip id="9h41" depart="32407.00" from="G0G1" to="B2A2"/>
    <trip id="9h42" depart="32407.00" from="D11D10" to="H1H0"/>
    <trip id="9h43" depart="32407.00" from="A9B9" to="B1B0"/>
    <trip id="9h44" depart="32407.00" from="L4K4" to="K5L5"/>
    <trip id="9h45" depart="32407.00" from="B11B10" to="J1J0"/>
    <trip id="9h46" depart="32407.00" from="A5B5" to="K7L7"/>
    <trip id="9h47" depart="32407.00" from="L10K10" to="K1L1"/>
    <trip id="9h48" depart="32407.00" from="A5B5" to="E10E11"/>
    <trip id="9h49" depart="32408.00" from="F11F10" to="K10K11"/>
    <trip id="9h50" depart="32408.00" from="E0E1" to="D1D0"/>
    <trip id="9h51" depart="32408.00" from="A9B9" to="F1F0"/>
    <trip id="9h52" depart="32408.00" from="B5C5" to="B8A8"/>
    <trip id="9h53" depart="32408.00" from="L2K2" to="G5G6"/>
    <trip id="9h54" depart="32408.00" from="L8K8" to="K3L3"/>
    <trip id="9h55" depart="32409.00" from="F11F10" to="B6A6"/>
    <trip id="9h56" depart="32409.00" from="A3B3" to="D1D0"/>
    <trip id="9h57" depart="32409.00" from="L10K10" to="F1F0"/>
    <trip id="9h58" depart="32409.00" from="L8K8" to="K9L9"/>
    <trip id="9h59" depart="32409.00" from="K0K1" to="B4A4"/>
    <trip id="9h60" depart="32409.00" from="L8K8" to="H1H0"/>
    <trip id="9h61" depart="32410.00" from="K0K1" to="B1B0"/>
    <trip id="9h62" depart="32410.00" from="L2K2" to="B4A4"/>
    <trip id="9h63" depart="32410.00" from="A9B9" to="H1H0"/>
    <trip id="9h64" depart="32410.00" from="A5B5" to="K5L5"/>
    <trip id="9h65" depart="32410.00" from="H11H10" to="I10I11"/>
    <trip id="9h66" depart="32410.00" from="H11H10" to="G10G11"/>
    <trip id="9h67" depart="32411.00" from="J7K7" to="B8A8"/>
    <trip id="9h68" depart="32411.00" from="J11J10" to="C10C11"/>
    <trip id="9h69" depart="32411.00" from="K0K1" to="B1B0"/>
    <trip id="9h70" depart="32411.00" from="L8K8" to="K9L9"/>
    <trip id="9h71" depart="32411.00" from="A9B9" to="B8A8"/>
    <trip id="9h72" depart="32411.00" from="A7B7" to="K3L3"/>
    <trip id="9h73" depart="32412.00" from="L2K2" to="C10C11"/>
    <trip id="9h74" depart="32412.00" from="A5B5" to="B2A2"/>
    <trip id="9h75" depart="32412.00" from="B11B10" to="H5H4"/>
    <trip id="9h76" depart="32412.00" from="I0I1" to="B8A8"/>
    <trip id="9h77" depart="32413.00" from="L4K4" to="K3L3"/>
    <trip id="9h78" depart="32413.00" from="E0E1" to="B8A8"/>
    <trip id="9h79" depart="32413.00" from="L10K10" to="I10I11"/>
    <trip id="9h80" depart="32413.00" from="K0K1" to="G6G7"/>
    <trip id="9h81" depart="32413.00" from="A1B1" to="B1B0"/>
    <trip id="9h82" depart="32413.00" from="L2K2" to="H1H0"/>
    <trip id="9h83" depart="32413.00" from="A5B5" to="C10C11"/>
    <trip id="9h84" depart="32414.00" from="B11B10" to="B2A2"/>
    <trip id="9h85" depart="32414.00" from="I0I1" to="B4A4"/>
    <trip id="9h86" depart="32415.00" from="K0K1" to="C5D5"/>
    <trip id="9h87" depart="32415.00" from="L10K10" to="B2A2"/>
    <trip id="9h88" depart="32416.00" from="L2K2" to="F1F0"/>
    <trip id="9h89" depart="32416.00" from="L10K10" to="B6A6"/>
    <trip id="9h90" depart="32416.00" from="A9B9" to="C1C2"/>
    <trip id="9h91" depart="32416.00" from="I0I1" to="E10E11"/>
    <trip id="9h92" depart="32416.00" from="L6K6" to="B2A2"/>
    <trip id="9h93" depart="32416.00" from="L8K8" to="B8A8"/>
    <trip id="9h94" depart="32417.00" from="E0E1" to="K10K11"/>
    <trip id="9h95" depart="32417.00" from="H6H5" to="G10G11"/>
    <trip id="9h96" depart="32417.00" from="H11H10" to="B8A8"/>
    <trip id="9h97" depart="32417.00" from="L6K6" to="G10G11"/>
    <trip id="9h98" depart="32417.00" from="A3B3" to="J10J9"/>
    <trip id="9h99" depart="32417.00" from="C0C1" to="K3L3"/>
    <trip id="9h100" depart="32418.00" from="C0C1" to="E10E11"/>
    <trip id="9h101" depart="32418.00" from="C0C1" to="B2A2"/>
    <trip id="9h102" depart="32418.00" from="L6K6" to="J1J0"/>
    <trip id="9h103" depart="32418.00" from="G2G3" to="B10A10"/>
    <trip id="9h104" depart="32418.00" from="E0E1" to="H1H0"/>
    <trip id="9h105" depart="32418.00" from="E6D6" to="B6A6"/>
    <trip id="9h106" depart="32419.00" from="L4K4" to="K1L1"/>
    <trip id="9h107" depart="32419.00" from="A3B3" to="G10G11"/>
    <trip id="9h108" depart="32419.00" from="L2K2" to="K10K11"/>
    <trip id="9h109" depart="32419.00" from="A9B9" to="B10A10"/>
    <trip id="9h110" depart="32419.00" from="F11F10" to="K3L3"/>
    <trip id="9h111" depart="32419.00" from="E0E1" to="I10I11"/>
    <trip id="9h112" depart="32419.00" from="J11J10" to="F3G3"/>
    <trip id="9h113" depart="32419.00" from="I1J1" to="B10A10"/>
    <trip id="9h114" depart="32420.00" from="E0E1" to="B4A4"/>
    <trip id="9h115" depart="32420.00" from="A3B3" to="B8A8"/>
    <trip id="9h116" depart="32420.00" from="L10K10" to="J1J0"/>
    <trip id="9h117" depart="32421.00" from="L2K2" to="G2G3"/>
    <trip id="9h118" depart="32421.00" from="B11B10" to="B8A8"/>
    <trip id="9h119" depart="32421.00" from="I0I1" to="B8A8"/>
    <trip id="9h120" depart="32422.00" from="C0C1" to="B8A8"/>
    <trip id="9h121" depart="32422.00" from="G0G1" to="B2A2"/>
    <trip id="9h122" depart="32422.00" from="J11J10" to="J1J0"/>
    <trip id="9h123" depart="32422.00" from="E0E1" to="G10G11"/>
    <trip id="9h124" depart="32422.00" from="A9B9" to="E10E11"/>
    <trip id="9h125" depart="32423.00" from="A1B1" to="D1D0"/>
    <trip id="9h126" depart="32423.00" from="K0K1" to="G10G11"/>
    <trip id="9h127" depart="32423.00" from="A9B9" to="E10E11"/>
    <trip id="9h128" depart="32423.00" from="C9D9" to="J1J0"/>
    <trip id="9h129" depart="32423.00" from="A7B7" to="F1F0"/>
    <trip id="9h130" depart="32423.00" from="I0I1" to="B10A10"/>
    <trip id="9h131" depart="32424.00" from="H11H10" to="B10A10"/>
    <trip id="9h132" depart="32424.00" from="F11F10" to="B1B0"/>
    <trip id="9h133" depart="32424.00" from="A9B9" to="C10C11"/>
    <trip id="9h134" depart="32424.00" from="K0K1" to="K3L3"/>
    <trip id="9h135" depart="32424.00" from="A3B3" to="B10A10"/>
    <trip id="9h136" depart="32424.00" from="L8K8" to="D1D0"/>
    <trip id="9h137" depart="32425.00" from="A1B1" to="B4A4"/>
    <trip id="9h138" depart="32425.00" from="J11J10" to="H1H0"/>
    <trip id="9h139" depart="32425.00" from="J11J10" to="K1L1"/>
    <trip id="9h140" depart="32425.00" from="H7I7" to="K10K11"/>
    <trip id="9h141" depart="32425.00" from="L2K2" to="K9L9"/>
    <trip id="9h142" depart="32425.00" from="A1B1" to="C10C11"/>
    <trip id="9h143" depart="32426.00" from="J6I6" to="B1B0"/>
    <trip id="9h144" depart="32426.00" from="L10K10" to="K3L3"/>
    <trip id="9h145" depart="32426.00" from="L8K8" to="K1L1"/>
    <trip id="9h146" depart="32426.00" from="E0E1" to="D1D0"/>
    <trip id="9h147" depart="32426.00" from="D11D10" to="K3L3"/>
    <trip id="9h148" depart="32427.00" from="L8K8" to="I10I11"/>
    <trip id="9h149" depart="32427.00" from="K0K1" to="K9L9"/>
    <trip id="9h150" depart="32427.00" from="L10K10" to="G10G11"/>
    <trip id="9h151" depart="32427.00" from="E0E1" to="K10K11"/>
    <trip id="9h152" depart="32427.00" from="L2K2" to="K3L3"/>
    <trip id="9h153" depart="32427.00" from="L4K4" to="B8A8"/>
    <trip id="9h154" depart="32427.00" from="I0I1" to="D1D0"/>
    <trip id="9h155" depart="32427.00" from="L2K2" to="B4A4"/>
    <trip id="9h156" depart="32428.00" from="L10K10" to="D1D0"/>
    <trip id="9h157" depart="32428.00" from="A1B1" to="K7L7"/>
    <trip id="9h158" depart="32428.00" from="K0K1" to="F1F0"/>
    <trip id="9h159" depart="32428.00" from="L10K10" to="B2A2"/>
    <trip id="9h160" depart="32428.00" from="J11J10" to="C10C11"/>
    <trip id="9h161" depart="32429.00" from="G0G1" to="E10E11"/>
    <trip id="9h162" depart="32429.00" from="J11J10" to="B8A8"/>
    <trip id="9h163" depart="32429.00" from="A5B5" to="B6A6"/>
    <trip id="9h164" depart="32429.00" from="G0G1" to="K10K11"/>
    <trip id="9h165" depart="32429.00" from="A9B9" to="F1F0"/>
    <trip id="9h166" depart="32429.00" from="C0C1" to="B2A2"/>
    <trip id="9h167" depart="32430.00" from="A9B9" to="B4A4"/>
    <trip id="9h168" depart="32430.00" from="G0G1" to="B8A8"/>
    <trip id="9h169" depart="32430.00" from="J11J10" to="B2A2"/>
    <trip id="9h170" depart="32430.00" from="L4K4" to="H1H0"/>
    <trip id="9h171" depart="32430.00" from="E4E5" to="B4A4"/>
    <trip id="9h172" depart="32430.00" from="L6K6" to="F1F0"/>
    <trip id="9h173" depart="32430.00" from="A3B3" to="I10I11"/>
    <trip id="9h174" depart="32431.00" from="A7B7" to="H1H0"/>
    <trip id="9h175" depart="32431.00" from="L8K8" to="B2A2"/>
    <trip id="9h176" depart="32431.00" from="G0G1" to="F1F0"/>
    <trip id="9h177" depart="32431.00" from="L2K2" to="K9L9"/>
    <trip id="9h178" depart="32431.00" from="I0I1" to="I10H10"/>
    <trip id="9h179" depart="32432.00" from="A9B9" to="I6H6"/>
    <trip id="9h180" depart="32432.00" from="A7B7" to="B1B0"/>
    <trip id="9h181" depart="32432.00" from="F11F10" to="H1H0"/>
    <trip id="9h182" depart="32432.00" from="B11B10" to="J1J0"/>
    <trip id="9h183" depart="32432.00" from="J11J10" to="K7L7"/>
    <trip id="9h184" depart="32433.00" from="G0G1" to="I10I11"/>
    <trip id="9h185" depart="32433.00" from="A7B7" to="C10C11"/>
    <trip id="9h186" depart="32433.00" from="A5B5" to="J1J0"/>
    <trip id="9h187" depart="32433.00" from="F3F2" to="B1B0"/>
    <trip id="9h188" depart="32434.00" from="E0E1" to="C10C11"/>
    <trip id="9h189" depart="32434.00" from="A3B3" to="K9L9"/>
    <trip id="9h190" depart="32434.00" from="A1B1" to="K10K11"/>
    <trip id="9h191" depart="32434.00" from="I0I1" to="K7L7"/>
    <trip id="9h192" depart="32434.00" from="H11H10" to="I10I11"/>
    <trip id="9h193" depart="32435.00" from="A3B3" to="D1D0"/>
    <trip id="9h194" depart="32435.00" from="J11J10" to="K3L3"/>
    <trip id="9h195" depart="32435.00" from="J11J10" to="C10C11"/>
    <trip id="9h196" depart="32435.00" from="F11F10" to="C10C11"/>
    <trip id="9h197" depart="32435.00" from="L8K8" to="E10E11"/>
    <trip id="9h198" depart="32435.00" from="L8K8" to="I3I4"/>
    <trip id="9h199" depart="32435.00" from="E0E1" to="B6A6"/>
    <trip id="9h200" depart="32435.00" from="K0K1" to="I10I11"/>
    <trip id="9h201" depart="32436.00" from="G4F4" to="K7L7"/>
    <trip id="9h202" depart="32436.00" from="J11J10" to="B2A2"/>
    <trip id="9h203" depart="32436.00" from="A7B7" to="G5H5"/>
    <trip id="9h204" depart="32436.00" from="A5B5" to="K9L9"/>
    <trip id="9h205" depart="32436.00" from="A5B5" to="K3L3"/>
    <trip id="9h206" depart="32436.00" from="J8I8" to="G10G11"/>
    <trip id="9h207" depart="32437.00" from="L2K2" to="K9L9"/>
    <trip id="9h208" depart="32437.00" from="G6F6" to="D2C2"/>
    <trip id="9h209" depart="32437.00" from="L4K4" to="K5L5"/>
    <trip id="9h210" depart="32437.00" from="L10K10" to="E10E11"/>
    <trip id="9h211" depart="32437.00" from="L2K2" to="C10C11"/>
    <trip id="9h212" depart="32437.00" from="H11H10" to="K9L9"/>
    <trip id="9h213" depart="32437.00" from="A7B7" to="G10G11"/>
    <trip id="9h214" depart="32437.00" from="G7G8" to="G10G11"/>
    <trip id="9h215" depart="32438.00" from="C0C1" to="B6A6"/>
    <trip id="9h216" depart="32438.00" from="L10K10" to="B10A10"/>
    <trip id="9h217" depart="32438.00" from="I9J9" to="K3L3"/>
    <trip id="9h218" depart="32438.00" from="A1B1" to="G10G11"/>
    <trip id="9h219" depart="32439.00" from="G0G1" to="F1F0"/>
    <trip id="9h220" depart="32439.00" from="I0I1" to="B4A4"/>
    <trip id="9h221" depart="32439.00" from="L8K8" to="D1D0"/>
    <trip id="9h222" depart="32440.00" from="C0C1" to="K10J10"/>
    <trip id="9h223" depart="32440.00" from="A3B3" to="I10I11"/>
    <trip id="9h224" depart="32440.00" from="A5B5" to="I10I11"/>
    <trip id="9h225" depart="32441.00" from="J11J10" to="K5L5"/>
    <trip id="9h226" depart="32441.00" from="L10K10" to="C10C11"/>
    <trip id="9h227" depart="32441.00" from="A7B7" to="G10G11"/>
    <trip id="9h228" depart="32441.00" from="A3B3" to="K5L5"/>
    <trip id="9h229" depart="32441.00" from="L6K6" to="B4A4"/>
    <trip id="9h230" depart="32441.00" from="B11B10" to="B8A8"/>
    <trip id="9h231" depart="32442.00" from="L10K10" to="K5L5"/>
    <trip id="9h232" depart="32442.00" from="E5F5" to="D1D0"/>
    <trip id="9h233" depart="32442.00" from="B11B10" to="K3L3"/>
    <trip id="9h234" depart="32442.00" from="D3D2" to="F1F0"/>
    <trip id="9h235" depart="32442.00" from="H11H10" to="H1H0"/>
    <trip id="9h236" depart="32442.00" from="L8K8" to="I3J3"/>
    <trip id="9h237" depart="32443.00" from="H11H10" to="J1J0"/>
    <trip id="9h238" depart="32443.00" from="H6H5" to="F6E6"/>
    <trip id="9h239" depart="32443.00" from="L10K10" to="H7I7"/>
    <trip id="9h240" depart="32443.00" from="I0I1" to="I10I11"/>
    <trip id="9h241" depart="32444.00" from="E4E5" to="H1H0"/>
    <trip id="9h242" depart="32444.00" from="C0C1" to="K10K11"/>
    <trip id="9h243" depart="32444.00" from="A5B5" to="G10G11"/>
    <trip id="9h244" depart="32444.00" from="L6K6" to="K3L3"/>
    <trip id="9h245" depart="32444.00" from="L2K2" to="F1F0"/>
    <trip id="9h246" depart="32445.00" from="A5B5" to="K9L9"/>
    <trip id="9h247" depart="32445.00" from="L8K8" to="K5L5"/>
    <trip id="9h248" depart="32445.00" from="L10K10" to="B10A10"/>
    <trip id="9h249" depart="32445.00" from="F11F10" to="J1J0"/>
    <trip id="9h250" depart="32446.00" from="B11B10" to="B10A10"/>
    <trip id="9h251" depart="32446.00" from="L6K6" to="B6A6"/>
    <trip id="9h252" depart="32446.00" from="L2K2" to="K7L7"/>
    <trip id="9h253" depart="32446.00" from="E0E1" to="B3C3"/>
    <trip id="9h254" depart="32447.00" from="F1G1" to="B2A2"/>
    <trip id="9h255" depart="32447.00" from="F11F10" to="J1J0"/>
    <trip id="9h256" depart="32447.00" from="K0K1" to="B4A4"/>
    <trip id="9h257" depart="32447.00" from="A5B5" to="F1F0"/>
    <trip id="9h258" depart="32447.00" from="L6K6" to="B10A10"/>
    <trip id="9h259" depart="32447.00" from="E7F7" to="K7L7"/>
    <trip id="9h260" depart="32448.00" from="J11J10" to="G10G11"/>
    <trip id="9h261" depart="32448.00" from="E0E1" to="B6A6"/>
    <trip id="9h262" depart="32448.00" from="L2K2" to="F1F0"/>
    <trip id="9h263" depart="32448.00" from="L10K10" to="B8A8"/>
    <trip id="9h264" depart="32448.00" from="H11H10" to="B1B0"/>
    <trip id="9h265" depart="32449.00" from="A9B9" to="K5L5"/>
    <trip id="9h266" depart="32449.00" from="A7B7" to="K5L5"/>
    <trip id="9h267" depart="32449.00" from="L2K2" to="B4A4"/>
    <trip id="9h268" depart="32449.00" from="B11B10" to="B4A4"/>
    <trip id="9h269" depart="32449.00" from="A1B1" to="K1L1"/>
    <trip id="9h270" depart="32449.00" from="C0C1" to="B4A4"/>
    <trip id="9h271" depart="32449.00" from="K0K1" to="G10G11"/>
    <trip id="9h272" depart="32449.00" from="L10K10" to="G10G11"/>
    <trip id="9h273" depart="32450.00" from="G0G1" to="K7L7"/>
    <trip id="9h274" depart="32450.00" from="L10K10" to="K5L5"/>
    <trip id="9h275" depart="32450.00" from="F11F10" to="K9L9"/>
    <trip id="9h276" depart="32450.00" from="F11F10" to="E10E11"/>
    <trip id="9h277" depart="32450.00" from="L6K6" to="B1B0"/>
    <trip id="9h278" depart="32450.00" from="H9H8" to="B1B0"/>
    <trip id="9h279" depart="32450.00" from="I0I1" to="G3G4"/>
    <trip id="9h280" depart="32450.00" from="L8K8" to="G10G11"/>
    <trip id="9h281" depart="32450.00" from="H5I5" to="B2A2"/>
    <trip id="9h282" depart="32451.00" from="F11F10" to="B6A6"/>
    <trip id="9h283" depart="32451.00" from="F11F10" to="E10E11"/>
    <trip id="9h284" depart="32451.00" from="E0E1" to="J1J0"/>
    <trip id="9h285" depart="32451.00" from="A7B7" to="K7L7"/>
    <trip id="9h286" depart="32451.00" from="L2K2" to="B2A2"/>
    <trip id="9h287" depart="32452.00" from="K0K1" to="K2K3"/>
    <trip id="9h288" depart="32452.00" from="H11H10" to="H1H0"/>
    <trip id="9h289" depart="32452.00" from="A5B5" to="D1D0"/>
    <trip id="9h290" depart="32452.00" from="H11H10" to="B6A6"/>
    <trip id="9h291" depart="32453.00" from="A5B5" to="K3L3"/>
    <trip id="9h292" depart="32453.00" from="K0K1" to="H1H0"/>
    <trip id="9h293" depart="32453.00" from="L6K6" to="K3L3"/>
    <trip id="9h294" depart="32454.00" from="A7B7" to="J1J0"/>
    <trip id="9h295" depart="32454.00" from="D11D10" to="B10A10"/>
    <trip id="9h296" depart="32454.00" from="A7B7" to="I10I11"/>
    <trip id="9h297" depart="32454.00" from="K0K1" to="B6A6"/>
    <trip id="9h298" depart="32454.00" from="D11D10" to="D1D0"/>
    <trip id="9h299" depart="32455.00" from="A3B3" to="B4A4"/>
    <trip id="9h300" depart="32455.00" from="I8H8" to="F1F0"/>
    <trip id="9h301" depart="32455.00" from="B11B10" to="K10K11"/>
    <trip id="9h302" depart="32455.00" from="E0E1" to="C10C11"/>
    <trip id="9h303" depart="32455.00" from="J11J10" to="B10A10"/>
    <trip id="9h304" depart="32455.00" from="H11H10" to="B10A10"/>
    <trip id="9h305" depart="32455.00" from="A9B9" to="B2A2"/>
    <trip id="9h306" depart="32456.00" from="C1C2" to="B10A10"/>
    <trip id="9h307" depart="32456.00" from="D11D10" to="J1J0"/>
    <trip id="9h308" depart="32456.00" from="L2K2" to="K1L1"/>
    <trip id="9h309" depart="32456.00" from="L2K2" to="B10A10"/>
    <trip id="9h310" depart="32456.00" from="L6K6" to="K5L5"/>
    <trip id="9h311" depart="32456.00" from="A5B5" to="B10A10"/>
    <trip id="9h312" depart="32457.00" from="L10K10" to="I10I11"/>
    <trip id="9h313" depart="32457.00" from="L2K2" to="B8A8"/>
    <trip id="9h314" depart="32457.00" from="E0E1" to="C10C11"/>
    <trip id="9h315" depart="32457.00" from="C6C7" to="B4A4"/>
    <trip id="9h316" depart="32457.00" from="A5B5" to="G10G11"/>
    <trip id="9h317" depart="32457.00" from="K0K1" to="K3L3"/>
    <trip id="9h318" depart="32458.00" from="A7B7" to="B6A6"/>
    <trip id="9h319" depart="32458.00" from="L10K10" to="F3G3"/>
    <trip id="9h320" depart="32458.00" from="L6K6" to="H1H0"/>
    <trip id="9h321" depart="32459.00" from="A3B3" to="E6E7"/>
    <trip id="9h322" depart="32459.00" from="B11B10" to="B1B0"/>
    <trip id="9h323" depart="32459.00" from="C0C1" to="F1F0"/>
    <trip id="9h324" depart="32459.00" from="L2K2" to="B1B0"/>
    <trip id="9h325" depart="32460.00" from="F11F10" to="G9H9"/>
    <trip id="9h326" depart="32460.00" from="L10K10" to="I10I11"/>
    <trip id="9h327" depart="32460.00" from="F11F10" to="B4A4"/>
    <trip id="9h328" depart="32460.00" from="A5B5" to="K5L5"/>
    <trip id="9h329" depart="32460.00" from="J5K5" to="G10G11"/>
    <trip id="9h330" depart="32460.00" from="B11B10" to="E1F1"/>
    <trip id="9h331" depart="32460.00" from="G0G1" to="B4A4"/>
    <trip id="9h332" depart="32460.00" from="C0C1" to="E10E11"/>
    <trip id="9h333" depart="32461.00" from="H11H10" to="K1L1"/>
    <trip id="9h334" depart="32461.00" from="A5B5" to="J1J0"/>
    <trip id="9h335" depart="32461.00" from="K0K1" to="I2H2"/>
    <trip id="9h336" depart="32461.00" from="H11H10" to="B4A4"/>
    <trip id="9h337" depart="32461.00" from="L8K8" to="J1J0"/>
    <trip id="9h338" depart="32461.00" from="H11H10" to="K7L7"/>
    <trip id="9h339" depart="32461.00" from="D11D10" to="K1L1"/>
    <trip id="9h340" depart="32462.00" from="I0I1" to="E10E11"/>
    <trip id="9h341" depart="32462.00" from="D11D10" to="B4A4"/>
    <trip id="9h342" depart="32462.00" from="L6K6" to="F1F0"/>
    <trip id="9h343" depart="32462.00" from="A5B5" to="B1B0"/>
    <trip id="9h344" depart="32463.00" from="L10K10" to="K3L3"/>
    <trip id="9h345" depart="32463.00" from="D10D9" to="K1L1"/>
    <trip id="9h346" depart="32463.00" from="D11D10" to="B4A4"/>
    <trip id="9h347" depart="32463.00" from="E1F1" to="E10E11"/>
    <trip id="9h348" depart="32463.00" from="E8E9" to="C10C11"/>
    <trip id="9h349" depart="32464.00" from="G0G1" to="C10C11"/>
    <trip id="9h350" depart="32464.00" from="L2K2" to="D1D0"/>
    <trip id="9h351" depart="32464.00" from="C0C1" to="D1D0"/>
    <trip id="9h352" depart="32464.00" from="L8K8" to="K3L3"/>
    <trip id="9h353" depart="32464.00" from="B11B10" to="I10I11"/>
    <trip id="9h354" depart="32465.00" from="A5B5" to="K3L3"/>
    <trip id="9h355" depart="32465.00" from="K0K1" to="B8A8"/>
    <trip id="9h356" depart="32465.00" from="E1E2" to="K7L7"/>
    <trip id="9h357" depart="32465.00" from="F11F10" to="D1D0"/>
    <trip id="9h358" depart="32465.00" from="A3B3" to="G10G11"/>
    <trip id="9h359" depart="32465.00" from="L8K8" to="D1D0"/>
    <trip id="9h360" depart="32465.00" from="L6K6" to="K3L3"/>
    <trip id="9h361" depart="32466.00" from="C0C1" to="K3L3"/>
    <trip id="9h362" depart="32466.00" from="J11J10" to="F1F0"/>
    <trip id="9h363" depart="32466.00" from="A3B3" to="B8A8"/>
    <trip id="9h364" depart="32466.00" from="K0K1" to="G10G11"/>
    <trip id="9h365" depart="32466.00" from="C0C1" to="C10C11"/>
    <trip id="9h366" depart="32466.00" from="E0E1" to="K1L1"/>
    <trip id="9h367" depart="32467.00" from="A5B5" to="K5L5"/>
    <trip id="9h368" depart="32467.00" from="G0G1" to="B8A8"/>
    <trip id="9h369" depart="32467.00" from="E0E1" to="I10I11"/>
    <trip id="9h370" depart="32467.00" from="E0E1" to="J10J9"/>
    <trip id="9h371" depart="32467.00" from="L8K8" to="B1B0"/>
    <trip id="9h372" depart="32467.00" from="G0G1" to="K9L9"/>
    <trip id="9h373" depart="32467.00" from="D9E9" to="F1F0"/>
    <trip id="9h374" depart="32468.00" from="A1B1" to="K1L1"/>
    <trip id="9h375" depart="32468.00" from="K0K1" to="I10I11"/>
    <trip id="9h376" depart="32468.00" from="A1B1" to="G10G11"/>
    <trip id="9h377" depart="32468.00" from="L10K10" to="F1F0"/>
    <trip id="9h378" depart="32469.00" from="L10K10" to="F1F0"/>
    <trip id="9h379" depart="32469.00" from="A1B1" to="B6A6"/>
    <trip id="9h380" depart="32469.00" from="L6K6" to="G10G11"/>
    <trip id="9h381" depart="32469.00" from="B11B10" to="K10K11"/>
    <trip id="9h382" depart="32469.00" from="D11D10" to="K1L1"/>
    <trip id="9h383" depart="32469.00" from="A5B5" to="D1D0"/>
    <trip id="9h384" depart="32470.00" from="L8K8" to="F5G5"/>
    <trip id="9h385" depart="32470.00" from="L6K6" to="G10G11"/>
    <trip id="9h386" depart="32470.00" from="H2H1" to="K3L3"/>
    <trip id="9h387" depart="32470.00" from="C0C1" to="B1B0"/>
    <trip id="9h388" depart="32470.00" from="H2H1" to="E10E11"/>
    <trip id="9h389" depart="32471.00" from="A1B1" to="K5L5"/>
    <trip id="9h390" depart="32471.00" from="L8K8" to="B8A8"/>
    <trip id="9h391" depart="32471.00" from="I0I1" to="D1D0"/>
    <trip id="9h392" depart="32471.00" from="H8G8" to="K1L1"/>
    <trip id="9h393" depart="32471.00" from="A3B3" to="K1L1"/>
    <trip id="9h394" depart="32472.00" from="D11D10" to="H1H0"/>
    <trip id="9h395" depart="32472.00" from="K0K1" to="H1H0"/>
    <trip id="9h396" depart="32472.00" from="E0E1" to="I10I11"/>
    <trip id="9h397" depart="32472.00" from="A5B5" to="K10K11"/>
    <trip id="9h398" depart="32472.00" from="D5E5" to="H1H0"/>
    <trip id="9h399" depart="32472.00" from="B11B10" to="F10F9"/>
    <trip id="9h400" depart="32473.00" from="L6K6" to="F1F0"/>
    <trip id="9h401" depart="32473.00" from="L2K2" to="F1F0"/>
    <trip id="9h402" depart="32473.00" from="A3B3" to="J1J0"/>
    <trip id="9h403" depart="32473.00" from="D11D10" to="B1B0"/>
    <trip id="9h404" depart="32473.00" from="L4K4" to="K3L3"/>
    <trip id="9h405" depart="32474.00" from="A5B5" to="B6A6"/>
    <trip id="9h406" depart="32474.00" from="L10K10" to="B10A10"/>
    <trip id="9h407" depart="32474.00" from="D11D10" to="K1L1"/>
    <trip id="9h408" depart="32474.00" from="I0I1" to="B1B0"/>
    <trip id="9h409" depart="32474.00" from="L8K8" to="K10K11"/>
    <trip id="9h410" depart="32474.00" from="K7K8" to="K3L3"/>
    <trip id="9h411" depart="32474.00" from="L8K8" to="I10I11"/>
    <trip id="9h412" depart="32474.00" from="J11J10" to="D1D0"/>
    <trip id="9h413" depart="32475.00" from="L8K8" to="E10E11"/>
    <trip id="9h414" depart="32475.00" from="A5B5" to="B4A4"/>
    <trip id="9h415" depart="32475.00" from="C0C1" to="J1J0"/>
    <trip id="9h416" depart="32475.00" from="L6K6" to="K5L5"/>
    <trip id="9h417" depart="32475.00" from="I0I1" to="G5H5"/>
    <trip id="9h418" depart="32475.00" from="C0C1" to="G10G11"/>
    <trip id="9h419" depart="32476.00" from="A7B7" to="K7L7"/>
    <trip id="9h420" depart="32476.00" from="I4I5" to="K10K11"/>
    <trip id="9h421" depart="32476.00" from="A1B1" to="I10I11"/>
    <trip id="9h422" depart="32477.00" from="I0I1" to="F7G7"/>
    <trip id="9h423" depart="32477.00" from="L8K8" to="F1F0"/>
    <trip id="9h424" depart="32477.00" from="A3B3" to="B1B0"/>
    <trip id="9h425" depart="32477.00" from="F11F10" to="B6A6"/>
    <trip id="9h426" depart="32477.00" from="K0K1" to="K10K11"/>
    <trip id="9h427" depart="32478.00" from="D11D10" to="H1H0"/>
    <trip id="9h428" depart="32478.00" from="F11F10" to="B8A8"/>
    <trip id="9h429" depart="32478.00" from="A5B5" to="C10C11"/>
    <trip id="9h430" depart="32478.00" from="I0I1" to="B8A8"/>
    <trip id="9h431" depart="32478.00" from="C0C1" to="H1H0"/>
    <trip id="9h432" depart="32478.00" from="K0K1" to="F8E8"/>
    <trip id="9h433" depart="32478.00" from="F8F7" to="C10C11"/>
    <trip id="9h434" depart="32478.00" from="L6K6" to="G10G11"/>
    <trip id="9h435" depart="32479.00" from="D11D10" to="B1B0"/>
    <trip id="9h436" depart="32479.00" from="L4K4" to="I10I11"/>
    <trip id="9h437" depart="32479.00" from="G0G1" to="K3L3"/>
    <trip id="9h438" depart="32479.00" from="L4K4" to="K10K11"/>
    <trip id="9h439" depart="32479.00" from="E0E1" to="H1H0"/>
    <trip id="9h440" depart="32479.00" from="G8G9" to="B1B0"/>
    <trip id="9h441" depart="32479.00" from="K10J10" to="B8A8"/>
    <trip id="9h442" depart="32480.00" from="L8K8" to="E10E11"/>
    <trip id="9h443" depart="32480.00" from="L6K6" to="K10K11"/>
    <trip id="9h444" depart="32480.00" from="G0G1" to="G10F10"/>
    <trip id="9h445" depart="32480.00" from="A5B5" to="C6C7"/>
    <trip id="9h446" depart="32480.00" from="F11F10" to="H6H5"/>
    <trip id="9h447" depart="32480.00" from="C10B10" to="I10I11"/>
    <trip id="9h448" depart="32480.00" from="L8K8" to="K10K11"/>
    <trip id="9h449" depart="32480.00" from="D10C10" to="K3L3"/>
    <trip id="9h450" depart="32481.00" from="J11J10" to="C10C11"/>
    <trip id="9h451" depart="32481.00" from="J11J10" to="K9L9"/>
    <trip id="9h452" depart="32481.00" from="F11F10" to="K9L9"/>
    <trip id="9h453" depart="32482.00" from="I0I1" to="I10I11"/>
    <trip id="9h454" depart="32482.00" from="J11J10" to="B10A10"/>
    <trip id="9h455" depart="32482.00" from="A1B1" to="C10C11"/>
    <trip id="9h456" depart="32482.00" from="J11J10" to="E10E11"/>
    <trip id="9h457" depart="32483.00" from="A7B7" to="B6A6"/>
    <trip id="9h458" depart="32483.00" from="I8H8" to="G10G11"/>
    <trip id="9h459" depart="32483.00" from="A7B7" to="K7L7"/>
    <trip id="9h460" depart="32483.00" from="D11D10" to="K1L1"/>