<?xml version="1.0" encoding="UTF-8"?>

<!-- generated on 11/11/20 20:33:09 by Eclipse SUMO netedit Version 1.7.0
<configuration xmlns:xsi="http://www.w3.org/2001/XMLSchema-instance" xsi:noNamespaceSchemaLocation="http://sumo.dlr.de/xsd/netconvertConfiguration.xsd">

    <input>
        <sumo-net-file value="T:\Documents\202009-Fall%202020\851-0101-86S%20Complex%20Social%20Systems%20Modeling%20Agents%20Learning%20and%20Games\project\data\bcn050\grid01-bcn_50.net.xml"/>
    </input>

    <output>
        <output-file value="T:\Documents\202009-Fall%202020\851-0101-86S%20Complex%20Social%20Systems%20Modeling%20Agents%20Learning%20and%20Games\project\data\bcn050\grid01-bcn_50.net.xml"/>
    </output>

    <processing>
        <geometry.min-radius.fix.railways value="false"/>
        <geometry.max-grade.fix value="false"/>
        <offset.disable-normalization value="true"/>
        <lefthand value="false"/>
    </processing>

    <junctions>
        <no-internal-links value="false"/>
        <no-turnarounds value="true"/>
        <junctions.corner-detail value="5"/>
        <junctions.limit-turn-speed value="5.5"/>
        <rectangular-lane-cut value="false"/>
    </junctions>

    <pedestrian>
        <walkingareas value="true"/>
    </pedestrian>

    <report>
        <aggregate-warnings value="5"/>
    </report>

</configuration>
-->

<net version="1.6" junctionCornerDetail="5" walkingareas="true" limitTurnSpeed="5.50" xmlns:xsi="http://www.w3.org/2001/XMLSchema-instance" xsi:noNamespaceSchemaLocation="http://sumo.dlr.de/xsd/net_file.xsd">

    <location netOffset="0.00,0.00" convBoundary="0.00,0.00,1466.63,1466.63" origBoundary="0.00,0.00,1466.63,1466.63" projParameter="!"/>

    <edge id=":A1_w0" function="walkingarea">
        <lane id=":A1_w0_0" index="0" allow="pedestrian" speed="1.00" length="8.40" width="2.00" shape="0.00,126.93 0.00,124.93 0.00,135.33 0.00,133.33"/>
    </edge>
    <edge id=":A10_w0" function="walkingarea">
        <lane id=":A10_w0_0" index="0" allow="pedestrian" speed="1.00" length="8.40" width="2.00" shape="0.00,1333.30 0.00,1331.30 0.00,1341.70 0.00,1339.70"/>
    </edge>
    <edge id=":A2_0" function="internal">
        <lane id=":A2_0_0" index="0" disallow="pedestrian" speed="2.78" length="7.49" shape="5.20,268.26 3.62,268.61 2.50,269.66 1.82,271.41 1.60,273.86"/>
    </edge>
    <edge id=":A2_w0" function="walkingarea">
        <lane id=":A2_w0_0" index="0" allow="pedestrian" speed="1.00" length="6.28" width="3.20" shape="5.20,266.66 5.20,264.66 0.00,273.86 3.20,273.86 5.20,271.86 5.20,269.86"/>
    </edge>
    <edge id=":A3_0" function="internal">
        <lane id=":A3_0_0" index="0" disallow="pedestrian" speed="2.78" length="7.49" shape="1.60,392.79 1.83,395.24 2.50,396.99 3.63,398.04 5.20,398.39"/>
    </edge>
    <edge id=":A3_w0" function="walkingarea">
        <lane id=":A3_w0_0" index="0" allow="pedestrian" speed="1.00" length="6.28" width="3.20" shape="5.20,396.79 5.20,394.79 3.20,392.79 0.00,392.79 5.20,401.99 5.20,399.99"/>
    </edge>
    <edge id=":A4_w0" function="walkingarea">
        <lane id=":A4_w0_0" index="0" allow="pedestrian" speed="1.00" length="8.40" width="2.00" shape="0.00,533.32 0.00,531.32 0.00,541.72 0.00,539.72"/>
    </edge>
    <edge id=":A5_0" function="internal">
        <lane id=":A5_0_0" index="0" disallow="pedestrian" speed="2.78" length="7.49" shape="5.20,668.25 3.62,668.60 2.50,669.65 1.82,671.40 1.60,673.85"/>
    </edge>
    <edge id=":A5_w0" function="walkingarea">
        <lane id=":A5_w0_0" index="0" allow="pedestrian" speed="1.00" length="6.28" width="3.20" shape="5.20,666.65 5.20,664.65 0.00,673.85 3.20,673.85 5.20,671.85 5.20,669.85"/>
    </edge>
    <edge id=":A6_0" function="internal">
        <lane id=":A6_0_0" index="0" disallow="pedestrian" speed="2.78" length="7.49" shape="1.60,792.78 1.83,795.23 2.50,796.98 3.63,798.03 5.20,798.38"/>
    </edge>
    <edge id=":A6_w0" function="walkingarea">
        <lane id=":A6_w0_0" index="0" allow="pedestrian" speed="1.00" length="6.28" width="3.20" shape="5.20,796.78 5.20,794.78 3.20,792.78 0.00,792.78 5.20,801.98 5.20,799.98"/>
    </edge>
    <edge id=":A7_w0" function="walkingarea">
        <lane id=":A7_w0_0" index="0" allow="pedestrian" speed="1.00" length="8.40" width="2.00" shape="0.00,926.91 0.00,924.91 0.00,935.31 0.00,933.31"/>
    </edge>
    <edge id=":A8_0" function="internal">
        <lane id=":A8_0_0" index="0" disallow="pedestrian" speed="2.78" length="7.49" shape="5.20,1068.24 3.62,1068.59 2.50,1069.64 1.82,1071.39 1.60,1073.84"/>
    </edge>
    <edge id=":A8_w0" function="walkingarea">
        <lane id=":A8_w0_0" index="0" allow="pedestrian" speed="1.00" length="6.28" width="3.20" shape="5.20,1066.64 5.20,1064.64 0.00,1073.84 3.20,1073.84 5.20,1071.84 5.20,1069.84"/>
    </edge>
    <edge id=":A9_0" function="internal">
        <lane id=":A9_0_0" index="0" disallow="pedestrian" speed="2.78" length="7.49" shape="1.60,1192.77 1.83,1195.22 2.50,1196.97 3.63,1198.02 5.20,1198.37"/>
    </edge>
    <edge id=":A9_w0" function="walkingarea">
        <lane id=":A9_w0_0" index="0" allow="pedestrian" speed="1.00" length="6.28" width="3.20" shape="5.20,1196.77 5.20,1194.77 3.20,1192.77 0.00,1192.77 5.20,1201.97 5.20,1199.97"/>
    </edge>
    <edge id=":B0_w0" function="walkingarea">
        <lane id=":B0_w0_0" index="0" allow="pedestrian" speed="1.00" length="8.40" width="2.00" shape="133.33,0.00 135.33,0.00 124.93,0.00 126.93,0.00"/>
    </edge>
    <edge id=":B1_0" function="internal">
        <lane id=":B1_0_0" index="0" disallow="pedestrian" speed="13.89" length="14.40" shape="128.53,137.33 128.53,122.93"/>
        <lane id=":B1_0_1" index="1" disallow="pedestrian" speed="13.89" length="14.40" shape="131.73,137.33 131.73,122.93"/>
    </edge>
    <edge id=":B1_2" function="internal">
        <lane id=":B1_2_0" index="0" disallow="pedestrian" speed="6.51" length="9.03" shape="131.73,137.33 132.08,134.88 133.13,133.13 134.88,132.08 137.33,131.73"/>
    </edge>
    <edge id=":B1_3" function="internal">
        <lane id=":B1_3_0" index="0" disallow="pedestrian" speed="6.51" length="9.03" shape="122.93,128.53 125.38,128.18 127.13,127.13 128.18,125.38 128.53,122.93"/>
    </edge>
    <edge id=":B1_4" function="internal">
        <lane id=":B1_4_0" index="0" disallow="pedestrian" speed="13.89" length="14.40" shape="122.93,128.53 137.33,128.53"/>
        <lane id=":B1_4_1" index="1" disallow="pedestrian" speed="13.89" length="14.40" shape="122.93,131.73 137.33,131.73"/>
    </edge>
    <edge id=":B1_w0" function="walkingarea">
        <lane id=":B1_w0_0" index="0" allow="pedestrian" speed="1.00" length="4.24" width="2.00" shape="122.93,133.33 122.93,135.33 124.93,137.33 126.93,137.33 126.82,136.11 126.49,135.11 125.93,134.33 125.15,133.77 124.15,133.44"/>
    </edge>
    <edge id=":B1_w1" function="walkingarea">
        <lane id=":B1_w1_0" index="0" allow="pedestrian" speed="1.00" length="4.24" width="2.00" shape="133.33,137.33 135.33,137.33 137.33,135.33 137.33,133.33 136.11,133.44 135.11,133.77 134.33,134.33 133.77,135.11 133.44,136.11"/>
    </edge>
    <edge id=":B1_w2" function="walkingarea">
        <lane id=":B1_w2_0" index="0" allow="pedestrian" speed="1.00" length="4.24" width="2.00" shape="137.33,126.93 137.33,124.93 135.33,122.93 133.33,122.93 133.44,124.15 133.77,125.15 134.33,125.93 135.11,126.49 136.11,126.82"/>
    </edge>
    <edge id=":B1_w3" function="walkingarea">
        <lane id=":B1_w3_0" index="0" allow="pedestrian" speed="1.00" length="4.24" width="2.00" shape="126.93,122.93 124.93,122.93 122.93,124.93 122.93,126.93 124.15,126.82 125.15,126.49 125.93,125.93 126.49,125.15 126.82,124.15"/>
    </edge>
    <edge id=":B10_0" function="internal">
        <lane id=":B10_0_0" index="0" disallow="pedestrian" speed="6.51" length="9.03" shape="128.53,1343.70 128.18,1341.25 127.13,1339.50 125.38,1338.45 122.93,1338.10"/>
    </edge>
    <edge id=":B10_1" function="internal">
        <lane id=":B10_1_0" index="0" disallow="pedestrian" speed="13.89" length="14.40" shape="128.53,1343.70 128.53,1329.30"/>
        <lane id=":B10_1_1" index="1" disallow="pedestrian" speed="13.89" length="14.40" shape="131.73,1343.70 131.73,1329.30"/>
    </edge>
    <edge id=":B10_3" function="internal">
        <lane id=":B10_3_0" index="0" disallow="pedestrian" speed="13.89" length="14.40" shape="137.33,1338.10 122.93,1338.10"/>
        <lane id=":B10_3_1" index="1" disallow="pedestrian" speed="13.89" length="14.40" shape="137.33,1334.90 122.93,1334.90"/>
    </edge>
    <edge id=":B10_5" function="internal">
        <lane id=":B10_5_0" index="0" disallow="pedestrian" speed="6.51" length="9.03" shape="137.33,1334.90 134.88,1334.55 133.13,1333.50 132.08,1331.75 131.73,1329.30"/>
    </edge>
    <edge id=":B10_w0" function="walkingarea">
        <lane id=":B10_w0_0" index="0" allow="pedestrian" speed="1.00" length="4.24" width="2.00" shape="122.93,1339.70 122.93,1341.70 124.93,1343.70 126.93,1343.70 126.82,1342.48 126.49,1341.48 125.93,1340.70 125.15,1340.14 124.15,1339.81"/>
    </edge>
    <edge id=":B10_w1" function="walkingarea">
        <lane id=":B10_w1_0" index="0" allow="pedestrian" speed="1.00" length="4.24" width="2.00" shape="133.33,1343.70 135.33,1343.70 137.33,1341.70 137.33,1339.70 136.11,1339.81 135.11,1340.14 134.33,1340.70 133.77,1341.48 133.44,1342.48"/>
    </edge>
    <edge id=":B10_w2" function="walkingarea">
        <lane id=":B10_w2_0" index="0" allow="pedestrian" speed="1.00" length="4.24" width="2.00" shape="137.33,1333.30 137.33,1331.30 135.33,1329.30 133.33,1329.30 133.44,1330.52 133.77,1331.52 134.33,1332.30 135.11,1332.86 136.11,1333.19"/>
    </edge>
    <edge id=":B10_w3" function="walkingarea">
        <lane id=":B10_w3_0" index="0" allow="pedestrian" speed="1.00" length="4.24" width="2.00" shape="126.93,1329.30 124.93,1329.30 122.93,1331.30 122.93,1333.30 124.15,1333.19 125.15,1332.86 125.93,1332.30 126.49,1331.52 126.82,1330.52"/>
    </edge>
    <edge id=":B11_w0" function="walkingarea">
        <lane id=":B11_w0_0" index="0" allow="pedestrian" speed="1.00" length="8.40" width="2.00" shape="126.93,1466.63 124.93,1466.63 135.33,1466.63 133.33,1466.63"/>
    </edge>
    <edge id=":B2_0" function="internal">
        <lane id=":B2_0_0" index="0" disallow="pedestrian" speed="6.51" length="9.03" shape="128.53,273.86 128.18,271.41 127.13,269.66 125.38,268.61 122.93,268.26"/>
    </edge>
    <edge id=":B2_1" function="internal">
        <lane id=":B2_1_0" index="0" disallow="pedestrian" speed="13.89" length="13.90" shape="128.53,273.86 128.53,259.96"/>
        <lane id=":B2_1_1" index="1" disallow="pedestrian" speed="13.89" length="13.90" shape="131.73,273.86 131.73,259.96"/>
    </edge>
    <edge id=":B2_3" function="internal">
        <lane id=":B2_3_0" index="0" disallow="pedestrian" speed="7.33" length="11.73" shape="131.73,273.86 132.08,270.01 133.13,267.26 134.88,265.61 137.33,265.06"/>
    </edge>
    <edge id=":B2_w0" function="walkingarea">
        <lane id=":B2_w0_0" index="0" allow="pedestrian" speed="1.00" length="4.24" width="2.00" shape="122.93,269.86 122.93,271.86 124.93,273.86 126.93,273.86 126.82,272.64 126.49,271.64 125.93,270.86 125.15,270.30 124.15,269.97"/>
    </edge>
    <edge id=":B2_w1" function="walkingarea">
        <lane id=":B2_w1_0" index="0" allow="pedestrian" speed="1.00" length="6.89" width="2.00" shape="133.33,273.86 135.33,273.86 137.33,268.66 137.33,266.66 136.11,266.86 135.11,267.46 134.33,268.46 133.77,269.86 133.44,271.66"/>
    </edge>
    <edge id=":B2_w2" function="walkingarea">
        <lane id=":B2_w2_0" index="0" allow="pedestrian" speed="1.00" length="3.91" width="2.00" shape="137.33,263.46 137.33,261.46 135.33,259.96 133.33,259.96 133.44,261.03 133.77,261.90 134.33,262.58 135.11,263.07 136.11,263.36"/>
    </edge>
    <edge id=":B2_w3" function="walkingarea">
        <lane id=":B2_w3_0" index="0" allow="pedestrian" speed="1.00" length="6.44" width="2.00" shape="126.93,259.96 124.93,259.96 122.93,264.66 122.93,266.66 124.15,266.47 125.15,265.92 125.93,264.99 126.49,263.68 126.82,262.01"/>
    </edge>
    <edge id=":B3_0" function="internal">
        <lane id=":B3_0_0" index="0" disallow="pedestrian" speed="13.89" length="14.40" shape="128.53,407.19 128.53,392.79"/>
        <lane id=":B3_0_1" index="1" disallow="pedestrian" speed="13.89" length="14.40" shape="131.73,407.19 131.73,392.79"/>
    </edge>
    <edge id=":B3_2" function="internal">
        <lane id=":B3_2_0" index="0" disallow="pedestrian" speed="7.33" length="11.73" shape="137.33,401.59 134.88,401.04 133.13,399.39 132.08,396.64 131.73,392.79"/>
    </edge>
    <edge id=":B3_3" function="internal">
        <lane id=":B3_3_0" index="0" disallow="pedestrian" speed="6.51" length="9.03" shape="122.93,398.39 125.38,398.04 127.13,396.99 128.18,395.24 128.53,392.79"/>
    </edge>
    <edge id=":B3_w0" function="walkingarea">
        <lane id=":B3_w0_0" index="0" allow="pedestrian" speed="1.00" length="6.89" width="2.00" shape="122.93,399.99 122.93,401.99 124.93,407.19 126.93,407.19 126.82,404.99 126.49,403.19 125.93,401.79 125.15,400.79 124.15,400.19"/>
    </edge>
    <edge id=":B3_w1" function="walkingarea">
        <lane id=":B3_w1_0" index="0" allow="pedestrian" speed="1.00" length="4.24" width="2.00" shape="133.33,407.19 135.33,407.19 137.33,405.19 137.33,403.19 136.11,403.30 135.11,403.63 134.33,404.19 133.77,404.97 133.44,405.97"/>
    </edge>
    <edge id=":B3_w2" function="walkingarea">
        <lane id=":B3_w2_0" index="0" allow="pedestrian" speed="1.00" length="6.89" width="2.00" shape="137.33,399.99 137.33,397.99 135.33,392.79 133.33,392.79 133.44,394.99 133.77,396.79 134.33,398.19 135.11,399.19 136.11,399.79"/>
    </edge>
    <edge id=":B3_w3" function="walkingarea">
        <lane id=":B3_w3_0" index="0" allow="pedestrian" speed="1.00" length="4.24" width="2.00" shape="126.93,392.79 124.93,392.79 122.93,394.79 122.93,396.79 124.15,396.68 125.15,396.35 125.93,395.79 126.49,395.01 126.82,394.01"/>
    </edge>
    <edge id=":B4_0" function="internal">
        <lane id=":B4_0_0" index="0" disallow="pedestrian" speed="6.51" length="9.03" shape="128.53,543.72 128.18,541.27 127.13,539.52 125.38,538.47 122.93,538.12"/>
    </edge>
    <edge id=":B4_1" function="internal">
        <lane id=":B4_1_0" index="0" disallow="pedestrian" speed="13.89" length="14.40" shape="128.53,543.72 128.53,529.32"/>
        <lane id=":B4_1_1" index="1" disallow="pedestrian" speed="13.89" length="14.40" shape="131.73,543.72 131.73,529.32"/>
    </edge>
    <edge id=":B4_3" function="internal">
        <lane id=":B4_3_0" index="0" disallow="pedestrian" speed="13.89" length="14.40" shape="137.33,538.12 122.93,538.12"/>
        <lane id=":B4_3_1" index="1" disallow="pedestrian" speed="13.89" length="14.40" shape="137.33,534.92 122.93,534.92"/>
    </edge>
    <edge id=":B4_5" function="internal">
        <lane id=":B4_5_0" index="0" disallow="pedestrian" speed="6.51" length="9.03" shape="137.33,534.92 134.88,534.57 133.13,533.52 132.08,531.77 131.73,529.32"/>
    </edge>
    <edge id=":B4_w0" function="walkingarea">
        <lane id=":B4_w0_0" index="0" allow="pedestrian" speed="1.00" length="4.24" width="2.00" shape="122.93,539.72 122.93,541.72 124.93,543.72 126.93,543.72 126.82,542.50 126.49,541.50 125.93,540.72 125.15,540.16 124.15,539.83"/>
    </edge>
    <edge id=":B4_w1" function="walkingarea">
        <lane id=":B4_w1_0" index="0" allow="pedestrian" speed="1.00" length="4.24" width="2.00" shape="133.33,543.72 135.33,543.72 137.33,541.72 137.33,539.72 136.11,539.83 135.11,540.16 134.33,540.72 133.77,541.50 133.44,542.50"/>
    </edge>
    <edge id=":B4_w2" function="walkingarea">
        <lane id=":B4_w2_0" index="0" allow="pedestrian" speed="1.00" length="4.24" width="2.00" shape="137.33,533.32 137.33,531.32 135.33,529.32 133.33,529.32 133.44,530.54 133.77,531.54 134.33,532.32 135.11,532.88 136.11,533.21"/>
    </edge>
    <edge id=":B4_w3" function="walkingarea">
        <lane id=":B4_w3_0" index="0" allow="pedestrian" speed="1.00" length="4.24" width="2.00" shape="126.93,529.32 124.93,529.32 122.93,531.32 122.93,533.32 124.15,533.21 125.15,532.88 125.93,532.32 126.49,531.54 126.82,530.54"/>
    </edge>
    <edge id=":B5_0" function="internal">
        <lane id=":B5_0_0" index="0" disallow="pedestrian" speed="6.51" length="9.03" shape="128.53,673.85 128.18,671.40 127.13,669.65 125.38,668.60 122.93,668.25"/>
    </edge>
    <edge id=":B5_1" function="internal">
        <lane id=":B5_1_0" index="0" disallow="pedestrian" speed="13.89" length="13.90" shape="128.53,673.85 128.53,659.95"/>
        <lane id=":B5_1_1" index="1" disallow="pedestrian" speed="13.89" length="13.90" shape="131.73,673.85 131.73,659.95"/>
    </edge>
    <edge id=":B5_3" function="internal">
        <lane id=":B5_3_0" index="0" disallow="pedestrian" speed="7.33" length="11.73" shape="131.73,673.85 132.08,670.00 133.13,667.25 134.88,665.60 137.33,665.05"/>
    </edge>
    <edge id=":B5_w0" function="walkingarea">
        <lane id=":B5_w0_0" index="0" allow="pedestrian" speed="1.00" length="4.24" width="2.00" shape="122.93,669.85 122.93,671.85 124.93,673.85 126.93,673.85 126.82,672.63 126.49,671.63 125.93,670.85 125.15,670.29 124.15,669.96"/>
    </edge>
    <edge id=":B5_w1" function="walkingarea">
        <lane id=":B5_w1_0" index="0" allow="pedestrian" speed="1.00" length="6.89" width="2.00" shape="133.33,673.85 135.33,673.85 137.33,668.65 137.33,666.65 136.11,666.85 135.11,667.45 134.33,668.45 133.77,669.85 133.44,671.65"/>
    </edge>
    <edge id=":B5_w2" function="walkingarea">
        <lane id=":B5_w2_0" index="0" allow="pedestrian" speed="1.00" length="3.91" width="2.00" shape="137.33,663.45 137.33,661.45 135.33,659.95 133.33,659.95 133.44,661.02 133.77,661.89 134.33,662.57 135.11,663.06 136.11,663.35"/>
    </edge>
    <edge id=":B5_w3" function="walkingarea">
        <lane id=":B5_w3_0" index="0" allow="pedestrian" speed="1.00" length="6.44" width="2.00" shape="126.93,659.95 124.93,659.95 122.93,664.65 122.93,666.65 124.15,666.46 125.15,665.91 125.93,664.97 126.49,663.67 126.82,662.00"/>
    </edge>
    <edge id=":B6_0" function="internal">
        <lane id=":B6_0_0" index="0" disallow="pedestrian" speed="13.89" length="14.40" shape="128.53,807.18 128.53,792.78"/>
        <lane id=":B6_0_1" index="1" disallow="pedestrian" speed="13.89" length="14.40" shape="131.73,807.18 131.73,792.78"/>
    </edge>
    <edge id=":B6_2" function="internal">
        <lane id=":B6_2_0" index="0" disallow="pedestrian" speed="7.33" length="11.73" shape="137.33,801.58 134.88,801.03 133.13,799.38 132.08,796.63 131.73,792.78"/>
    </edge>
    <edge id=":B6_3" function="internal">
        <lane id=":B6_3_0" index="0" disallow="pedestrian" speed="6.51" length="9.03" shape="122.93,798.38 125.38,798.03 127.13,796.98 128.18,795.23 128.53,792.78"/>
    </edge>
    <edge id=":B6_w0" function="walkingarea">
        <lane id=":B6_w0_0" index="0" allow="pedestrian" speed="1.00" length="6.89" width="2.00" shape="122.93,799.98 122.93,801.98 124.93,807.18 126.93,807.18 126.82,804.98 126.49,803.18 125.93,801.78 125.15,800.78 124.15,800.18"/>
    </edge>
    <edge id=":B6_w1" function="walkingarea">
        <lane id=":B6_w1_0" index="0" allow="pedestrian" speed="1.00" length="4.24" width="2.00" shape="133.33,807.18 135.33,807.18 137.33,805.18 137.33,803.18 136.11,803.29 135.11,803.62 134.33,804.18 133.77,804.96 133.44,805.96"/>
    </edge>
    <edge id=":B6_w2" function="walkingarea">
        <lane id=":B6_w2_0" index="0" allow="pedestrian" speed="1.00" length="6.89" width="2.00" shape="137.33,799.98 137.33,797.98 135.33,792.78 133.33,792.78 133.44,794.98 133.77,796.78 134.33,798.18 135.11,799.18 136.11,799.78"/>
    </edge>
    <edge id=":B6_w3" function="walkingarea">
        <lane id=":B6_w3_0" index="0" allow="pedestrian" speed="1.00" length="4.24" width="2.00" shape="126.93,792.78 124.93,792.78 122.93,794.78 122.93,796.78 124.15,796.67 125.15,796.34 125.93,795.78 126.49,795.00 126.82,794.00"/>
    </edge>
    <edge id=":B7_0" function="internal">
        <lane id=":B7_0_0" index="0" disallow="pedestrian" speed="13.89" length="14.40" shape="128.53,937.31 128.53,922.91"/>
        <lane id=":B7_0_1" index="1" disallow="pedestrian" speed="13.89" length="14.40" shape="131.73,937.31 131.73,922.91"/>
    </edge>
    <edge id=":B7_2" function="internal">
        <lane id=":B7_2_0" index="0" disallow="pedestrian" speed="6.51" length="9.03" shape="131.73,937.31 132.08,934.86 133.13,933.11 134.88,932.06 137.33,931.71"/>
    </edge>
    <edge id=":B7_3" function="internal">
        <lane id=":B7_3_0" index="0" disallow="all" speed="3.16" length="3.80" shape="137.33,934.31 136.35,933.66 136.03,933.01 136.35,932.36 137.33,931.71"/>
    </edge>
    <edge id=":B7_4" function="internal">
        <lane id=":B7_4_0" index="0" disallow="pedestrian" speed="6.51" length="9.03" shape="122.93,928.51 125.38,928.16 127.13,927.11 128.18,925.36 128.53,922.91"/>
    </edge>
    <edge id=":B7_5" function="internal">
        <lane id=":B7_5_0" index="0" disallow="pedestrian" speed="13.89" length="14.40" shape="122.93,928.51 137.33,928.51"/>
        <lane id=":B7_5_1" index="1" disallow="pedestrian" speed="13.89" length="14.40" shape="122.93,931.71 137.33,931.71"/>
    </edge>
    <edge id=":B7_w0" function="walkingarea">
        <lane id=":B7_w0_0" index="0" allow="pedestrian" speed="1.00" length="4.24" width="2.00" shape="122.93,933.31 122.93,935.31 124.93,937.31 126.93,937.31 126.82,936.09 126.49,935.09 125.93,934.31 125.15,933.75 124.15,933.42"/>
    </edge>
    <edge id=":B7_w1" function="walkingarea">
        <lane id=":B7_w1_0" index="0" allow="pedestrian" speed="1.00" length="4.24" width="2.00" shape="133.33,937.31 135.33,937.31 137.33,935.31 137.33,933.31 136.11,933.42 135.11,933.75 134.33,934.31 133.77,935.09 133.44,936.09"/>
    </edge>
    <edge id=":B7_w2" function="walkingarea">
        <lane id=":B7_w2_0" index="0" allow="pedestrian" speed="1.00" length="4.24" width="2.00" shape="137.33,926.91 137.33,924.91 135.33,922.91 133.33,922.91 133.44,924.13 133.77,925.13 134.33,925.91 135.11,926.47 136.11,926.80"/>
    </edge>
    <edge id=":B7_w3" function="walkingarea">
        <lane id=":B7_w3_0" index="0" allow="pedestrian" speed="1.00" length="4.24" width="2.00" shape="126.93,922.91 124.93,922.91 122.93,924.91 122.93,926.91 124.15,926.80 125.15,926.47 125.93,925.91 126.49,925.13 126.82,924.13"/>
    </edge>
    <edge id=":B8_0" function="internal">
        <lane id=":B8_0_0" index="0" disallow="pedestrian" speed="6.51" length="9.03" shape="128.53,1073.84 128.18,1071.39 127.13,1069.64 125.38,1068.59 122.93,1068.24"/>
    </edge>
    <edge id=":B8_1" function="internal">
        <lane id=":B8_1_0" index="0" disallow="pedestrian" speed="13.89" length="13.90" shape="128.53,1073.84 128.53,1059.94"/>
        <lane id=":B8_1_1" index="1" disallow="pedestrian" speed="13.89" length="13.90" shape="131.73,1073.84 131.73,1059.94"/>
    </edge>
    <edge id=":B8_3" function="internal">
        <lane id=":B8_3_0" index="0" disallow="pedestrian" speed="7.33" length="11.73" shape="131.73,1073.84 132.08,1069.99 133.13,1067.24 134.88,1065.59 137.33,1065.04"/>
    </edge>
    <edge id=":B8_w0" function="walkingarea">
        <lane id=":B8_w0_0" index="0" allow="pedestrian" speed="1.00" length="4.24" width="2.00" shape="122.93,1069.84 122.93,1071.84 124.93,1073.84 126.93,1073.84 126.82,1072.62 126.49,1071.62 125.93,1070.84 125.15,1070.28 124.15,1069.95"/>
    </edge>
    <edge id=":B8_w1" function="walkingarea">
        <lane id=":B8_w1_0" index="0" allow="pedestrian" speed="1.00" length="6.89" width="2.00" shape="133.33,1073.84 135.33,1073.84 137.33,1068.64 137.33,1066.64 136.11,1066.84 135.11,1067.44 134.33,1068.44 133.77,1069.84 133.44,1071.64"/>
    </edge>
    <edge id=":B8_w2" function="walkingarea">
        <lane id=":B8_w2_0" index="0" allow="pedestrian" speed="1.00" length="3.91" width="2.00" shape="137.33,1063.44 137.33,1061.44 135.33,1059.94 133.33,1059.94 133.44,1061.01 133.77,1061.88 134.33,1062.57 135.11,1063.05 136.11,1063.34"/>
    </edge>
    <edge id=":B8_w3" function="walkingarea">
        <lane id=":B8_w3_0" index="0" allow="pedestrian" speed="1.00" length="6.44" width="2.00" shape="126.93,1059.94 124.93,1059.94 122.93,1064.64 122.93,1066.64 124.15,1066.45 125.15,1065.90 125.93,1064.97 126.49,1063.66 126.82,1061.99"/>
    </edge>
    <edge id=":B9_0" function="internal">
        <lane id=":B9_0_0" index="0" disallow="pedestrian" speed="13.89" length="14.40" shape="128.53,1207.17 128.53,1192.77"/>
        <lane id=":B9_0_1" index="1" disallow="pedestrian" speed="13.89" length="14.40" shape="131.73,1207.17 131.73,1192.77"/>
    </edge>
    <edge id=":B9_2" function="internal">
        <lane id=":B9_2_0" index="0" disallow="pedestrian" speed="7.33" length="11.73" shape="137.33,1201.57 134.88,1201.02 133.13,1199.37 132.08,1196.62 131.73,1192.77"/>
    </edge>
    <edge id=":B9_3" function="internal">
        <lane id=":B9_3_0" index="0" disallow="pedestrian" speed="6.51" length="9.03" shape="122.93,1198.37 125.38,1198.02 127.13,1196.97 128.18,1195.22 128.53,1192.77"/>
    </edge>
    <edge id=":B9_w0" function="walkingarea">
        <lane id=":B9_w0_0" index="0" allow="pedestrian" speed="1.00" length="6.89" width="2.00" shape="122.93,1199.97 122.93,1201.97 124.93,1207.17 126.93,1207.17 126.82,1204.97 126.49,1203.17 125.93,1201.77 125.15,1200.77 124.15,1200.17"/>
    </edge>
    <edge id=":B9_w1" function="walkingarea">
        <lane id=":B9_w1_0" index="0" allow="pedestrian" speed="1.00" length="4.24" width="2.00" shape="133.33,1207.17 135.33,1207.17 137.33,1205.17 137.33,1203.17 136.11,1203.28 135.11,1203.61 134.33,1204.17 133.77,1204.95 133.44,1205.95"/>
    </edge>
    <edge id=":B9_w2" function="walkingarea">
        <lane id=":B9_w2_0" index="0" allow="pedestrian" speed="1.00" length="6.89" width="2.00" shape="137.33,1199.97 137.33,1197.97 135.33,1192.77 133.33,1192.77 133.44,1194.97 133.77,1196.77 134.33,1198.17 135.11,1199.17 136.11,1199.77"/>
    </edge>
    <edge id=":B9_w3" function="walkingarea">
        <lane id=":B9_w3_0" index="0" allow="pedestrian" speed="1.00" length="4.24" width="2.00" shape="126.93,1192.77 124.93,1192.77 122.93,1194.77 122.93,1196.77 124.15,1196.66 125.15,1196.33 125.93,1195.77 126.49,1194.99 126.82,1193.99"/>
    </edge>
    <edge id=":C0_0" function="internal">
        <lane id=":C0_0_0" index="0" disallow="pedestrian" speed="2.78" length="7.49" shape="273.86,1.60 271.41,1.83 269.66,2.50 268.61,3.63 268.26,5.20"/>
    </edge>
    <edge id=":C0_w0" function="walkingarea">
        <lane id=":C0_w0_0" index="0" allow="pedestrian" speed="1.00" length="6.28" width="3.20" shape="269.86,5.20 271.86,5.20 273.86,3.20 273.86,0.00 264.66,5.20 266.66,5.20"/>
    </edge>
    <edge id=":C1_0" function="internal">
        <lane id=":C1_0_0" index="0" disallow="pedestrian" speed="7.33" length="11.73" shape="265.06,137.33 265.61,134.88 267.26,133.13 270.01,132.08 273.86,131.73"/>
    </edge>
    <edge id=":C1_1" function="internal">
        <lane id=":C1_1_0" index="0" disallow="pedestrian" speed="6.51" length="9.03" shape="268.26,122.93 268.61,125.38 269.66,127.13 271.41,128.18 273.86,128.53"/>
    </edge>
    <edge id=":C1_2" function="internal">
        <lane id=":C1_2_0" index="0" disallow="pedestrian" speed="13.89" length="14.40" shape="259.46,128.53 273.86,128.53"/>
        <lane id=":C1_2_1" index="1" disallow="pedestrian" speed="13.89" length="14.40" shape="259.46,131.73 273.86,131.73"/>
    </edge>
    <edge id=":C1_w0" function="walkingarea">
        <lane id=":C1_w0_0" index="0" allow="pedestrian" speed="1.00" length="4.24" width="2.00" shape="259.46,133.33 259.46,135.33 261.46,137.33 263.46,137.33 263.35,136.11 263.02,135.11 262.46,134.33 261.68,133.77 260.68,133.44"/>
    </edge>
    <edge id=":C1_w1" function="walkingarea">
        <lane id=":C1_w1_0" index="0" allow="pedestrian" speed="1.00" length="6.89" width="2.00" shape="266.66,137.33 268.66,137.33 273.86,135.33 273.86,133.33 271.66,133.44 269.86,133.77 268.46,134.33 267.46,135.11 266.86,136.11"/>
    </edge>
    <edge id=":C1_w2" function="walkingarea">
        <lane id=":C1_w2_0" index="0" allow="pedestrian" speed="1.00" length="4.24" width="2.00" shape="273.86,126.93 273.86,124.93 271.86,122.93 269.86,122.93 269.97,124.15 270.30,125.15 270.86,125.93 271.64,126.49 272.64,126.82"/>
    </edge>
    <edge id=":C1_w3" function="walkingarea">
        <lane id=":C1_w3_0" index="0" allow="pedestrian" speed="1.00" length="6.89" width="2.00" shape="266.66,122.93 264.66,122.93 259.46,124.93 259.46,126.93 261.66,126.82 263.46,126.49 264.86,125.93 265.86,125.15 266.46,124.15"/>
    </edge>
    <edge id=":C10_0" function="internal">
        <lane id=":C10_0_0" index="0" disallow="pedestrian" speed="6.51" length="9.03" shape="273.86,1338.10 271.41,1338.45 269.66,1339.50 268.61,1341.25 268.26,1343.70"/>
    </edge>
    <edge id=":C10_1" function="internal">
        <lane id=":C10_1_0" index="0" disallow="pedestrian" speed="13.89" length="13.90" shape="273.86,1338.10 259.96,1338.10"/>
        <lane id=":C10_1_1" index="1" disallow="pedestrian" speed="13.89" length="13.90" shape="273.86,1334.90 259.96,1334.90"/>
    </edge>
    <edge id=":C10_3" function="internal">
        <lane id=":C10_3_0" index="0" disallow="pedestrian" speed="7.33" length="11.73" shape="273.86,1334.90 270.01,1334.55 267.26,1333.50 265.61,1331.75 265.06,1329.30"/>
    </edge>
    <edge id=":C10_w0" function="walkingarea">
        <lane id=":C10_w0_0" index="0" allow="pedestrian" speed="1.00" length="6.44" width="2.00" shape="259.96,1339.70 259.96,1341.70 264.66,1343.70 266.66,1343.70 266.47,1342.48 265.92,1341.48 264.99,1340.70 263.68,1340.14 262.01,1339.81"/>
    </edge>
    <edge id=":C10_w1" function="walkingarea">