<?xml version="1.0" encoding="UTF-8"?>
<!-- generated on 2020-12-09 03:18:53.683118 by randomTrips.py v1_7_0+0000-714814baed
  options: -n .\data/grid01-bcn_10.net.xml <doubleminus>prefix=19h <doubleminus>fringe-factor 100 -b 68400 -e 72000 -p0.20708697653014266 <doubleminus>binomial 10 -odata/random/random_h_19-bcn_10.trips.rou.xml <doubleminus>edge-permission=passenger
-->
<routes xmlns:xsi="http://www.w3.org/2001/XMLSchema-instance" xsi:noNamespaceSchemaLocation="http://sumo.dlr.de/xsd/routes_file.xsd">
    <trip id="19h0" depart="68400.00" from="B11B10" to="B7A7"/>
    <trip id="19h1" depart="68400.00" from="D0D1" to="B1B0"/>
    <trip id="19h2" depart="68400.00" from="F11F10" to="B1B0"/>
    <trip id="19h3" depart="68400.00" from="H0H1" to="H10H11"/>
    <trip id="19h4" depart="68400.00" from="G2H2" to="K1L1"/>
    <trip id="19h5" depart="68400.00" from="J2I2" to="J1J0"/>
    <trip id="19h6" depart="68401.00" from="A5B5" to="K9L9"/>
    <trip id="19h7" depart="68401.00" from="A5B5" to="B3A3"/>
    <trip id="19h8" depart="68401.00" from="F11F10" to="K5L5"/>
    <trip id="19h9" depart="68402.00" from="A9B9" to="D10D11"/>
    <trip id="19h10" depart="68402.00" from="A9B9" to="B3A3"/>
    <trip id="19h11" depart="68402.00" from="H0H1" to="D10D11"/>
    <trip id="19h12" depart="68402.00" from="A9B9" to="C10B10"/>
    <trip id="19h13" depart="68403.00" from="J11J10" to="B3A3"/>
    <trip id="19h14" depart="68403.00" from="L7K7" to="J1J0"/>
    <trip id="19h15" depart="68403.00" from="A1B1" to="D10D11"/>
    <trip id="19h16" depart="68403.00" from="A9B9" to="K9L9"/>
    <trip id="19h17" depart="68403.00" from="H0H1" to="E7E6"/>
    <trip id="19h18" depart="68404.00" from="B11B10" to="B7A7"/>
    <trip id="19h19" depart="68404.00" from="F9G9" to="K5L5"/>
    <trip id="19h20" depart="68404.00" from="A9B9" to="K9L9"/>
    <trip id="19h21" depart="68404.00" from="A1B1" to="B3A3"/>
    <trip id="19h22" depart="68404.00" from="A1B1" to="D8D9"/>
    <trip id="19h23" depart="68405.00" from="J11J10" to="J1J0"/>
    <trip id="19h24" depart="68405.00" from="H0H1" to="B3A3"/>
    <trip id="19h25" depart="68405.00" from="D0D1" to="K9L9"/>
    <trip id="19h26" depart="68405.00" from="F11F10" to="B7A7"/>
    <trip id="19h27" depart="68406.00" from="H0H1" to="H3H4"/>
    <trip id="19h28" depart="68406.00" from="J11J10" to="H10H11"/>
    <trip id="19h29" depart="68406.00" from="B11B10" to="B1B0"/>
    <trip id="19h30" depart="68407.00" from="A1B1" to="K5L5"/>
    <trip id="19h31" depart="68407.00" from="F11F10" to="B1B0"/>
    <trip id="19h32" depart="68407.00" from="E4E3" to="H10H11"/>
    <trip id="19h33" depart="68407.00" from="L3K3" to="F1F0"/>
    <trip id="19h34" depart="68407.00" from="F11F10" to="J7J6"/>
    <trip id="19h35" depart="68407.00" from="B11B10" to="K9L9"/>
    <trip id="19h36" depart="68408.00" from="F11F10" to="B3A3"/>
    <trip id="19h37" depart="68408.00" from="B11B10" to="H10H11"/>
    <trip id="19h38" depart="68408.00" from="A9B9" to="B1B0"/>
    <trip id="19h39" depart="68408.00" from="L3K3" to="K5L5"/>
    <trip id="19h40" depart="68408.00" from="A9B9" to="J1J0"/>
    <trip id="19h41" depart="68408.00" from="A5B5" to="K9L9"/>
    <trip id="19h42" depart="68408.00" from="J11J10" to="K1L1"/>
    <trip id="19h43" depart="68408.00" from="A5B5" to="F1F0"/>
    <trip id="19h44" depart="68409.00" from="D8D9" to="J7I7"/>
    <trip id="19h45" depart="68409.00" from="D0D1" to="D10D11"/>
    <trip id="19h46" depart="68409.00" from="A9B9" to="F1F0"/>
    <trip id="19h47" depart="68409.00" from="B11B10" to="B7A7"/>
    <trip id="19h48" depart="68409.00" from="L3K3" to="H10H11"/>
    <trip id="19h49" depart="68409.00" from="L7K7" to="K5L5"/>
    <trip id="19h50" depart="68410.00" from="F11F10" to="B7A7"/>
    <trip id="19h51" depart="68410.00" from="A1B1" to="D6D7"/>
    <trip id="19h52" depart="68410.00" from="J11J10" to="F1F0"/>
    <trip id="19h53" depart="68410.00" from="L7K7" to="K9L9"/>
    <trip id="19h54" depart="68411.00" from="B11B10" to="K9L9"/>
    <trip id="19h55" depart="68411.00" from="F9F8" to="G2F2"/>
    <trip id="19h56" depart="68411.00" from="L7K7" to="B1B0"/>
    <trip id="19h57" depart="68411.00" from="G5G6" to="J1J0"/>
    <trip id="19h58" depart="68411.00" from="A5B5" to="K5L5"/>
    <trip id="19h59" depart="68411.00" from="G5G4" to="I10I9"/>
    <trip id="19h60" depart="68412.00" from="F9F8" to="H10H11"/>
    <trip id="19h61" depart="68412.00" from="I8I9" to="B7A7"/>
    <trip id="19h62" depart="68412.00" from="H0H1" to="D10D11"/>
    <trip id="19h63" depart="68412.00" from="J11J10" to="B1B0"/>
    <trip id="19h64" depart="68412.00" from="L7K7" to="K9L9"/>
    <trip id="19h65" depart="68412.00" from="A9B9" to="B9B8"/>
    <trip id="19h66" depart="68413.00" from="A5B5" to="K5L5"/>
    <trip id="19h67" depart="68413.00" from="J8J7" to="D10D11"/>
    <trip id="19h68" depart="68413.00" from="A5B5" to="B3A3"/>
    <trip id="19h69" depart="68414.00" from="G9H9" to="J1J0"/>
    <trip id="19h70" depart="68414.00" from="H0H1" to="B8B7"/>
    <trip id="19h71" depart="68414.00" from="D0D1" to="C5D5"/>
    <trip id="19h72" depart="68414.00" from="J11J10" to="J1J0"/>
    <trip id="19h73" depart="68414.00" from="J11J10" to="H10H11"/>
    <trip id="19h74" depart="68414.00" from="A1B1" to="B1B0"/>
    <trip id="19h75" depart="68415.00" from="A5B5" to="D10D11"/>
    <trip id="19h76" depart="68415.00" from="A9B9" to="B3A3"/>
    <trip id="19h77" depart="68416.00" from="H0H1" to="B3A3"/>
    <trip id="19h78" depart="68416.00" from="J11J10" to="D10D11"/>
    <trip id="19h79" depart="68417.00" from="J11J10" to="B3A3"/>
    <trip id="19h80" depart="68417.00" from="J8J7" to="F1F0"/>
    <trip id="19h81" depart="68417.00" from="J11J10" to="B7A7"/>
    <trip id="19h82" depart="68417.00" from="A9B9" to="D10D11"/>
    <trip id="19h83" depart="68418.00" from="H0H1" to="F10F9"/>
    <trip id="19h84" depart="68418.00" from="L7K7" to="B7A7"/>
    <trip id="19h85" depart="68418.00" from="A5B5" to="F1F0"/>
    <trip id="19h86" depart="68418.00" from="H0H1" to="G6F6"/>
    <trip id="19h87" depart="68419.00" from="F4F3" to="B7A7"/>
    <trip id="19h88" depart="68419.00" from="L7K7" to="H10H11"/>
    <trip id="19h89" depart="68419.00" from="A1B1" to="J1J0"/>
    <trip id="19h90" depart="68419.00" from="B11B10" to="K5L5"/>
    <trip id="19h91" depart="68419.00" from="B11B10" to="F1F0"/>
    <trip id="19h92" depart="68420.00" from="B11B10" to="B3A3"/>
    <trip id="19h93" depart="68420.00" from="L7K7" to="J1J0"/>
    <trip id="19h94" depart="68420.00" from="F11F10" to="B10B9"/>
    <trip id="19h95" depart="68420.00" from="D0D1" to="H10H11"/>
    <trip id="19h96" depart="68420.00" from="D0D1" to="B7A7"/>
    <trip id="19h97" depart="68420.00" from="L3K3" to="K1L1"/>
    <trip id="19h98" depart="68420.00" from="A1B1" to="G8F8"/>
    <trip id="19h99" depart="68421.00" from="J9K9" to="K1L1"/>
    <trip id="19h100" depart="68421.00" from="A9B9" to="B1B0"/>
    <trip id="19h101" depart="68421.00" from="E3E2" to="K5L5"/>
    <trip id="19h102" depart="68421.00" from="D0D1" to="I8I7"/>
    <trip id="19h103" depart="68421.00" from="H5H6" to="F6F5"/>
    <trip id="19h104" depart="68421.00" from="H0H1" to="B1B0"/>
    <trip id="19h105" depart="68422.00" from="D0D1" to="B5C5"/>
    <trip id="19h106" depart="68422.00" from="A9B9" to="K5L5"/>
    <trip id="19h107" depart="68422.00" from="J11J10" to="J1J0"/>
    <trip id="19h108" depart="68423.00" from="B11B10" to="B7A7"/>
    <trip id="19h109" depart="68424.00" from="A1B1" to="C9D9"/>
    <trip id="19h110" depart="68424.00" from="B11B10" to="H10H11"/>
    <trip id="19h111" depart="68424.00" from="A9B9" to="J1J0"/>
    <trip id="19h112" depart="68424.00" from="D0D1" to="H10H11"/>
    <trip id="19h113" depart="68424.00" from="A9B9" to="F1F0"/>
    <trip id="19h114" depart="68425.00" from="A1B1" to="D10D11"/>
    <trip id="19h115" depart="68425.00" from="J11J10" to="H10H11"/>
    <trip id="19h116" depart="68425.00" from="A9B9" to="F1F0"/>
    <trip id="19h117" depart="68425.00" from="B11B10" to="J1J0"/>
    <trip id="19h118" depart="68426.00" from="A5B5" to="F1F0"/>
    <trip id="19h119" depart="68426.00" from="H0H1" to="B1B0"/>
    <trip id="19h120" depart="68426.00" from="F11F10" to="B1B0"/>
    <trip id="19h121" depart="68426.00" from="D4E4" to="B1B0"/>
    <trip id="19h122" depart="68426.00" from="A9B9" to="D10D11"/>
    <trip id="19h123" depart="68426.00" from="J11J10" to="K5L5"/>
    <trip id="19h124" depart="68426.00" from="A1B1" to="B1B0"/>
    <trip id="19h125" depart="68427.00" from="H0H1" to="K1L1"/>
    <trip id="19h126" depart="68427.00" from="A1B1" to="B3A3"/>
    <trip id="19h127" depart="68427.00" from="H0H1" to="H10H11"/>
    <trip id="19h128" depart="68427.00" from="H7G7" to="K1L1"/>
    <trip id="19h129" depart="68427.00" from="H0H1" to="K1L1"/>
    <trip id="19h130" depart="68427.00" from="K10J10" to="K9L9"/>
    <trip id="19h131" depart="68428.00" from="A1B1" to="D10D11"/>
    <trip id="19h132" depart="68428.00" from="I7I6" to="B1B0"/>
    <trip id="19h133" depart="68428.00" from="J11J10" to="K5L5"/>
    <trip id="19h134" depart="68428.00" from="L7K7" to="K1L1"/>
    <trip id="19h135" depart="68428.00" from="D0D1" to="D10D11"/>
    <trip id="19h136" depart="68429.00" from="L3K3" to="K3J3"/>
    <trip id="19h137" depart="68429.00" from="L7K7" to="J1J0"/>
    <trip id="19h138" depart="68429.00" from="J11J10" to="K9L9"/>
    <trip id="19h139" depart="68429.00" from="J3J2" to="H10H11"/>
    <trip id="19h140" depart="68429.00" from="J11J10" to="C1D1"/>
    <trip id="19h141" depart="68430.00" from="L3K3" to="B7A7"/>
    <trip id="19h142" depart="68430.00" from="H0H1" to="D6D7"/>
    <trip id="19h143" depart="68430.00" from="L3K3" to="B7A7"/>
    <trip id="19h144" depart="68430.00" from="J11J10" to="D10D11"/>
    <trip id="19h145" depart="68430.00" from="A1B1" to="K9L9"/>
    <trip id="19h146" depart="68430.00" from="J11J10" to="F3E3"/>
    <trip id="19h147" depart="68431.00" from="A9B9" to="J1J0"/>
    <trip id="19h148" depart="68431.00" from="F7F6" to="F1F0"/>
    <trip id="19h149" depart="68431.00" from="J11J10" to="D10D11"/>
    <trip id="19h150" depart="68431.00" from="A9B9" to="B3A3"/>
    <trip id="19h151" depart="68432.00" from="A5B5" to="H10H11"/>
    <trip id="19h152" depart="68432.00" from="A9B9" to="F1F0"/>
    <trip id="19h153" depart="68432.00" from="A5B5" to="B7A7"/>
    <trip id="19h154" depart="68432.00" from="A9B9" to="B1B0"/>
    <trip id="19h155" depart="68432.00" from="L7K7" to="H10H11"/>
    <trip id="19h156" depart="68433.00" from="L3K3" to="F4F3"/>
    <trip id="19h157" depart="68433.00" from="D0D1" to="B7A7"/>
    <trip id="19h158" depart="68433.00" from="L7K7" to="F1F0"/>
    <trip id="19h159" depart="68433.00" from="A1B1" to="I7I6"/>
    <trip id="19h160" depart="68433.00" from="A5B5" to="H10H11"/>
    <trip id="19h161" depart="68433.00" from="L7K7" to="B3A3"/>
    <trip id="19h162" depart="68434.00" from="F11F10" to="F1F0"/>
    <trip id="19h163" depart="68434.00" from="L3K3" to="K9L9"/>
    <trip id="19h164" depart="68434.00" from="H0H1" to="H4H5"/>
    <trip id="19h165" depart="68434.00" from="A9B9" to="J1J0"/>
    <trip id="19h166" depart="68434.00" from="A9B9" to="B1B0"/>
    <trip id="19h167" depart="68435.00" from="D0D1" to="H10H11"/>
    <trip id="19h168" depart="68435.00" from="A9B9" to="J1J0"/>
    <trip id="19h169" depart="68435.00" from="H0H1" to="K9L9"/>
    <trip id="19h170" depart="68435.00" from="F11F10" to="J1J0"/>
    <trip id="19h171" depart="68436.00" from="A5B5" to="D10D11"/>
    <trip id="19h172" depart="68436.00" from="A5B5" to="J1J0"/>
    <trip id="19h173" depart="68436.00" from="A1B1" to="F1F0"/>
    <trip id="19h174" depart="68437.00" from="A9B9" to="B3A3"/>
    <trip id="19h175" depart="68437.00" from="A1B1" to="K1L1"/>
    <trip id="19h176" depart="68437.00" from="H0H1" to="K9L9"/>
    <trip id="19h177" depart="68437.00" from="G10F10" to="J1J0"/>
    <trip id="19h178" depart="68438.00" from="B6B5" to="D10D11"/>
    <trip id="19h179" depart="68438.00" from="H3G3" to="D10D11"/>
    <trip id="19h180" depart="68438.00" from="B11B10" to="D10D11"/>
    <trip id="19h181" depart="68439.00" from="F11F10" to="K9L9"/>
    <trip id="19h182" depart="68439.00" from="A9B9" to="D10D11"/>
    <trip id="19h183" depart="68439.00" from="F11F10" to="K9L9"/>
    <trip id="19h184" depart="68439.00" from="H6H7" to="B3A3"/>
    <trip id="19h185" depart="68440.00" from="A5B5" to="H10H11"/>
    <trip id="19h186" depart="68440.00" from="L7K7" to="K8J8"/>
    <trip id="19h187" depart="68440.00" from="A5B5" to="K5L5"/>
    <trip id="19h188" depart="68440.00" from="L3K3" to="K9L9"/>
    <trip id="19h189" depart="68440.00" from="F11F10" to="D9D10"/>
    <trip id="19h190" depart="68441.00" from="J11J10" to="F1F0"/>
    <trip id="19h191" depart="68441.00" from="B11B10" to="H10H11"/>
    <trip id="19h192" depart="68442.00" from="F11F10" to="D10D11"/>
    <trip id="19h193" depart="68442.00" from="B11B10" to="B7A7"/>
    <trip id="19h194" depart="68442.00" from="J11J10" to="B1B0"/>
    <trip id="19h195" depart="68443.00" from="H0H1" to="K1L1"/>
    <trip id="19h196" depart="68443.00" from="F11F10" to="H10H11"/>
    <trip id="19h197" depart="68443.00" from="F11F10" to="F1F0"/>
    <trip id="19h198" depart="68443.00" from="H0H1" to="B3A3"/>
    <trip id="19h199" depart="68444.00" from="L7K7" to="D10D11"/>
    <trip id="19h200" depart="68444.00" from="B11B10" to="J1J0"/>
    <trip id="19h201" depart="68444.00" from="A1B1" to="I8I9"/>
    <trip id="19h202" depart="68445.00" from="A5B5" to="J10J9"/>
    <trip id="19h203" depart="68445.00" from="H3H4" to="K5L5"/>
    <trip id="19h204" depart="68445.00" from="J11J10" to="D10D11"/>
    <trip id="19h205" depart="68445.00" from="A5B5" to="H10H11"/>
    <trip id="19h206" depart="68446.00" from="A1B1" to="K5L5"/>
    <trip id="19h207" depart="68446.00" from="L3K3" to="B3A3"/>
    <trip id="19h208" depart="68446.00" from="A9B9" to="B7A7"/>
    <trip id="19h209" depart="68446.00" from="J1K1" to="K5L5"/>
    <trip id="19h210" depart="68446.00" from="D0D1" to="D10D11"/>
    <trip id="19h211" depart="68446.00" from="A9B9" to="K5L5"/>
    <trip id="19h212" depart="68447.00" from="D0D1" to="F1F0"/>
    <trip id="19h213" depart="68447.00" from="F2E2" to="H10H11"/>
    <trip id="19h214" depart="68447.00" from="L7K7" to="J1J0"/>
    <trip id="19h215" depart="68447.00" from="F11F10" to="J1J0"/>
    <trip id="19h216" depart="68447.00" from="H0H1" to="F8E8"/>
    <trip id="19h217" depart="68447.00" from="J11J10" to="H2H3"/>
    <trip id="19h218" depart="68447.00" from="H0H1" to="I2H2"/>
    <trip id="19h219" depart="68448.00" from="D0D1" to="H10H11"/>
    <trip id="19h220" depart="68448.00" from="B11B10" to="K1L1"/>
    <trip id="19h221" depart="68449.00" from="A5B5" to="H10H11"/>
    <trip id="19h222" depart="68449.00" from="K5K6" to="F1F0"/>
    <trip id="19h223" depart="68449.00" from="A5B5" to="K9L9"/>
    <trip id="19h224" depart="68449.00" from="L7K7" to="K5L5"/>
    <trip id="19h225" depart="68450.00" from="J11J10" to="B1B0"/>
    <trip id="19h226" depart="68450.00" from="H0H1" to="J1J0"/>
    <trip id="19h227" depart="68451.00" from="A9B9" to="B1B0"/>
    <trip id="19h228" depart="68451.00" from="A1B1" to="K5K4"/>
    <trip id="19h229" depart="68451.00" from="D0D1" to="B3A3"/>
    <trip id="19h230" depart="68451.00" from="F11F10" to="B3A3"/>
    <trip id="19h231" depart="68452.00" from="D0D1" to="J1J0"/>
    <trip id="19h232" depart="68452.00" from="J11J10" to="B3A3"/>
    <trip id="19h233" depart="68452.00" from="A5B5" to="F3F2"/>
    <trip id="19h234" depart="68452.00" from="L7K7" to="B1B0"/>
    <trip id="19h235" depart="68452.00" from="D0D1" to="K9L9"/>
    <trip id="19h236" depart="68452.00" from="H0H1" to="H10H11"/>
    <trip id="19h237" depart="68453.00" from="D0D1" to="B7A7"/>
    <trip id="19h238" depart="68453.00" from="L3K3" to="F1F0"/>
    <trip id="19h239" depart="68453.00" from="J11J10" to="B7A7"/>
    <trip id="19h240" depart="68453.00" from="F11F10" to="B1B0"/>
    <trip id="19h241" depart="68453.00" from="A9B9" to="K5L5"/>
    <trip id="19h242" depart="68453.00" from="A5B5" to="K5L5"/>
    <trip id="19h243" depart="68454.00" from="L3K3" to="B3A3"/>
    <trip id="19h244" depart="68454.00" from="A9B9" to="B4B3"/>
    <trip id="19h245" depart="68454.00" from="A1B1" to="K1L1"/>
    <trip id="19h246" depart="68454.00" from="B11B10" to="B4B3"/>
    <trip id="19h247" depart="68454.00" from="J11J10" to="H10H11"/>
    <trip id="19h248" depart="68454.00" from="J11J10" to="G7F7"/>
    <trip id="19h249" depart="68454.00" from="F11F10" to="K9L9"/>
    <trip id="19h250" depart="68454.00" from="J11J10" to="K5L5"/>
    <trip id="19h251" depart="68455.00" from="L7K7" to="B1B0"/>
    <trip id="19h252" depart="68455.00" from="D0D1" to="J1J0"/>
    <trip id="19h253" depart="68455.00" from="A1B1" to="H3G3"/>
    <trip id="19h254" depart="68455.00" from="B11B10" to="J10I10"/>
    <trip id="19h255" depart="68455.00" from="L7K7" to="H10H11"/>
    <trip id="19h256" depart="68455.00" from="H0H1" to="B3A3"/>
    <trip id="19h257" depart="68456.00" from="D0D1" to="B7A7"/>
    <trip id="19h258" depart="68456.00" from="D0D1" to="F1F0"/>
    <trip id="19h259" depart="68456.00" from="D0D1" to="J1J0"/>
    <trip id="19h260" depart="68456.00" from="A5B5" to="K9L9"/>
    <trip id="19h261" depart="68456.00" from="L3K3" to="B3A3"/>
    <trip id="19h262" depart="68457.00" from="J11J10" to="K1L1"/>
    <trip id="19h263" depart="68457.00" from="A5B5" to="D10D11"/>
    <trip id="19h264" depart="68458.00" from="F5G5" to="B7A7"/>
    <trip id="19h265" depart="68458.00" from="A5B5" to="K5L5"/>
    <trip id="19h266" depart="68458.00" from="J11J10" to="H10H11"/>
    <trip id="19h267" depart="68459.00" from="L7K7" to="K5L5"/>
    <trip id="19h268" depart="68459.00" from="A9B9" to="J1J0"/>
    <trip id="19h269" depart="68459.00" from="B11B10" to="B1B0"/>
    <trip id="19h270" depart="68459.00" from="A5B5" to="J10J9"/>
    <trip id="19h271" depart="68459.00" from="J11J10" to="B7A7"/>
    <trip id="19h272" depart="68459.00" from="B11B10" to="D10D11"/>
    <trip id="19h273" depart="68460.00" from="A1B1" to="B3A3"/>
    <trip id="19h274" depart="68460.00" from="H0H1" to="F1G1"/>
    <trip id="19h275" depart="68460.00" from="B11B10" to="K1L1"/>
    <trip id="19h276" depart="68460.00" from="D0D1" to="C8D8"/>
    <trip id="19h277" depart="68461.00" from="D0D1" to="H10H11"/>
    <trip id="19h278" depart="68461.00" from="B11B10" to="B7A7"/>
    <trip id="19h279" depart="68461.00" from="A9B9" to="D10D11"/>
    <trip id="19h280" depart="68461.00" from="J11J10" to="B5B4"/>
    <trip id="19h281" depart="68461.00" from="H9I9" to="G10F10"/>
    <trip id="19h282" depart="68461.00" from="L3K3" to="B1B0"/>
    <trip id="19h283" depart="68461.00" from="L7K7" to="K5L5"/>
    <trip id="19h284" depart="68462.00" from="A5B5" to="B1B0"/>
    <trip id="19h285" depart="68462.00" from="J11J10" to="H9I9"/>
    <trip id="19h286" depart="68462.00" from="L3K3" to="B7A7"/>
    <trip id="19h287" depart="68463.00" from="B11B10" to="D10D11"/>
    <trip id="19h288" depart="68463.00" from="A5B5" to="G5H5"/>
    <trip id="19h289" depart="68463.00" from="F11F10" to="K5L5"/>
    <trip id="19h290" depart="68463.00" from="J11J10" to="K1L1"/>
    <trip id="19h291" depart="68463.00" from="A5B5" to="B7A7"/>
    <trip id="19h292" depart="68463.00" from="J11J10" to="F6F5"/>
    <trip id="19h293" depart="68464.00" from="L7K7" to="H10H11"/>
    <trip id="19h294" depart="68464.00" from="A1B1" to="F1F0"/>
    <trip id="19h295" depart="68464.00" from="B11B10" to="B1B0"/>
    <trip id="19h296" depart="68465.00" from="D0D1" to="B1B0"/>
    <trip id="19h297" depart="68465.00" from="L3K3" to="K5L5"/>
    <trip id="19h298" depart="68465.00" from="F11F10" to="K1L1"/>
    <trip id="19h299" depart="68465.00" from="J4J3" to="J1J0"/>
    <trip id="19h300" depart="68465.00" from="E4E3" to="B3A3"/>
    <trip id="19h301" depart="68465.00" from="A5B5" to="K5L5"/>
    <trip id="19h302" depart="68466.00" from="I7I6" to="G3F3"/>
    <trip id="19h303" depart="68466.00" from="A9B9" to="F1F0"/>
    <trip id="19h304" depart="68466.00" from="F11F10" to="B3A3"/>
    <trip id="19h305" depart="68466.00" from="B11B10" to="F1F0"/>
    <trip id="19h306" depart="68466.00" from="G6H6" to="K1L1"/>
    <trip id="19h307" depart="68466.00" from="A5B5" to="J1J0"/>
    <trip id="19h308" depart="68466.00" from="J11J10" to="J1J0"/>
    <trip id="19h309" depart="68467.00" from="F8E8" to="B3A3"/>
    <trip id="19h310" depart="68467.00" from="L7K7" to="J1J0"/>
    <trip id="19h311" depart="68467.00" from="G5G6" to="K9L9"/>
    <trip id="19h312" depart="68467.00" from="D0D1" to="K1L1"/>
    <trip id="19h313" depart="68468.00" from="C5D5" to="D10D11"/>
    <trip id="19h314" depart="68468.00" from="A9B9" to="K9L9"/>
    <trip id="19h315" depart="68468.00" from="A5B5" to="B1B0"/>
    <trip id="19h316" depart="68468.00" from="J11J10" to="K5L5"/>
    <trip id="19h317" depart="68468.00" from="B11B10" to="K1L1"/>
    <trip id="19h318" depart="68468.00" from="D0D1" to="B3A3"/>
    <trip id="19h319" depart="68469.00" from="D0D1" to="F1F0"/>
    <trip id="19h320" depart="68469.00" from="D0D1" to="C9C8"/>
    <trip id="19h321" depart="68469.00" from="F11F10" to="D10D11"/>
    <trip id="19h322" depart="68469.00" from="L3K3" to="D10D11"/>
    <trip id="19h323" depart="68470.00" from="B11B10" to="D8D9"/>
    <trip id="19h324" depart="68470.00" from="A9B9" to="J1J0"/>
    <trip id="19h325" depart="68471.00" from="L3K3" to="K5L5"/>
    <trip id="19h326" depart="68471.00" from="J11J10" to="C3C4"/>
    <trip id="19h327" depart="68471.00" from="D0D1" to="K9L9"/>
    <trip id="19h328" depart="68471.00" from="D0D1" to="D10D11"/>
    <trip id="19h329" depart="68471.00" from="A1B1" to="G1H1"/>
    <trip id="19h330" depart="68471.00" from="L7K7" to="D3D4"/>
    <trip id="19h331" depart="68471.00" from="L7K7" to="K5L5"/>
    <trip id="19h332" depart="68472.00" from="B11B10" to="K5L5"/>
    <trip id="19h333" depart="68472.00" from="I1J1" to="F1F0"/>
    <trip id="19h334" depart="68472.00" from="A1B1" to="B7A7"/>
    <trip id="19h335" depart="68472.00" from="B11B10" to="D10D11"/>
    <trip id="19h336" depart="68472.00" from="D0D1" to="K1L1"/>
    <trip id="19h337" depart="68473.00" from="A5B5" to="K5L5"/>
    <trip id="19h338" depart="68473.00" from="F11F10" to="B7A7"/>
    <trip id="19h339" depart="68473.00" from="D0D1" to="H7H8"/>
    <trip id="19h340" depart="68473.00" from="D0D1" to="J1J0"/>
    <trip id="19h341" depart="68473.00" from="L7K7" to="B1B0"/>
    <trip id="19h342" depart="68474.00" from="D9E9" to="J1J0"/>
    <trip id="19h343" depart="68474.00" from="A1B1" to="K1L1"/>
    <trip id="19h344" depart="68474.00" from="J11J10" to="I7H7"/>
    <trip id="19h345" depart="68474.00" from="A1B1" to="H10H11"/>
    <trip id="19h346" depart="68474.00" from="J11J10" to="F1F0"/>
    <trip id="19h347" depart="68475.00" from="J11J10" to="F1F0"/>
    <trip id="19h348" depart="68475.00" from="A1B1" to="B7A7"/>
    <trip id="19h349" depart="68475.00" from="L7K7" to="G8F8"/>
    <trip id="19h350" depart="68475.00" from="J11J10" to="B7A7"/>
    <trip id="19h351" depart="68475.00" from="J11J10" to="K5L5"/>
    <trip id="19h352" depart="68475.00" from="A5B5" to="D10D11"/>
    <trip id="19h353" depart="68476.00" from="L7K7" to="F7F6"/>
    <trip id="19h354" depart="68476.00" from="G9G10" to="K3J3"/>
    <trip id="19h355" depart="68477.00" from="A1B1" to="J1J0"/>
    <trip id="19h356" depart="68477.00" from="G9G10" to="F1F0"/>
    <trip id="19h357" depart="68477.00" from="A1B1" to="K5L5"/>
    <trip id="19h358" depart="68477.00" from="L7K7" to="C4D4"/>
    <trip id="19h359" depart="68477.00" from="H0H1" to="D10D11"/>
    <trip id="19h360" depart="68478.00" from="H0H1" to="K1L1"/>
    <trip id="19h361" depart="68478.00" from="A1B1" to="K1L1"/>
    <trip id="19h362" depart="68478.00" from="D0D1" to="H10H11"/>
    <trip id="19h363" depart="68478.00" from="J11J10" to="H10H11"/>
    <trip id="19h364" depart="68479.00" from="H0H1" to="B7A7"/>
    <trip id="19h365" depart="68479.00" from="J11J10" to="F9F8"/>
    <trip id="19h366" depart="68479.00" from="F11F10" to="B7A7"/>
    <trip id="19h367" depart="68479.00" from="D0D1" to="K9L9"/>
    <trip id="19h368" depart="68479.00" from="L7K7" to="F4F3"/>
    <trip id="19h369" depart="68479.00" from="L3K3" to="F1F0"/>
    <trip id="19h370" depart="68479.00" from="A5B5" to="J1J0"/>
    <trip id="19h371" depart="68479.00" from="B6B5" to="B1B0"/>
    <trip id="19h372" depart="68480.00" from="A9B9" to="B3A3"/>
    <trip id="19h373" depart="68481.00" from="F11F10" to="D10D11"/>
    <trip id="19h374" depart="68481.00" from="B11B10" to="K9L9"/>
    <trip id="19h375" depart="68481.00" from="L7K7" to="J1J0"/>
    <trip id="19h376" depart="68482.00" from="H0H1" to="D10D11"/>
    <trip id="19h377" depart="68482.00" from="L7K7" to="F1F0"/>
    <trip id="19h378" depart="68482.00" from="A5B5" to="B3A3"/>
    <trip id="19h379" depart="68482.00" from="B11B10" to="J1J0"/>
    <trip id="19h380" depart="68482.00" from="L7K7" to="K5L5"/>
    <trip id="19h381" depart="68483.00" from="H0H1" to="H10H11"/>
    <trip id="19h382" depart="68483.00" from="B11B10" to="H10H11"/>
    <trip id="19h383" depart="68483.00" from="L7K7" to="B3A3"/>
    <trip id="19h384" depart="68484.00" from="A1B1" to="J1J0"/>
    <trip id="19h385" depart="68484.00" from="H0H1" to="F8F7"/>
    <trip id="19h386" depart="68484.00" from="L7K7" to="F1F0"/>
    <trip id="19h387" depart="68484.00" from="A1B1" to="B1B0"/>
    <trip id="19h388" depart="68485.00" from="F10E10" to="B7A7"/>
    <trip id="19h389" depart="68485.00" from="J10I10" to="K10J10"/>
    <trip id="19h390" depart="68485.00" from="C9D9" to="H10H11"/>
    <trip id="19h391" depart="68485.00" from="D7D8" to="C1C2"/>
    <trip id="19h392" depart="68485.00" from="A5B5" to="D10D11"/>
    <trip id="19h393" depart="68485.00" from="H0H1" to="B7A7"/>
    <trip id="19h394" depart="68486.00" from="B11B10" to="H10H11"/>
    <trip id="19h395" depart="68486.00" from="J11J10" to="F8F7"/>
    <trip id="19h396" depart="68486.00" from="A1B1" to="K9L9"/>
    <trip id="19h397" depart="68486.00" from="C1C2" to="B1B0"/>
    <trip id="19h398" depart="68487.00" from="F11F10" to="K5L5"/>
    <trip id="19h399" depart="68487.00" from="L3K3" to="J6I6"/>
    <trip id="19h400" depart="68487.00" from="D0D1" to="H10H11"/>
    <trip id="19h401" depart="68487.00" from="F11F10" to="B1B0"/>
    <trip id="19h402" depart="68487.00" from="L7K7" to="J1J0"/>
    <trip id="19h403" depart="68487.00" from="L7K7" to="E6E5"/>
    <trip id="19h404" depart="68488.00" from="L7K7" to="K1L1"/>
    <trip id="19h405" depart="68488.00" from="F11F10" to="G10F10"/>
    <trip id="19h406" depart="68488.00" from="A5B5" to="D10D11"/>
    <trip id="19h407" depart="68488.00" from="D1D2" to="H1I1"/>
    <trip id="19h408" depart="68488.00" from="H0H1" to="B3A3"/>
    <trip id="19h409" depart="68488.00" from="B11B10" to="K5L5"/>
    <trip id="19h410" depart="68489.00" from="J8I8" to="D10D11"/>
    <trip id="19h411" depart="68489.00" from="E3E2" to="K9L9"/>
    <trip id="19h412" depart="68490.00" from="H0H1" to="I1J1"/>
    <trip id="19h413" depart="68490.00" from="H0H1" to="B1B0"/>
    <trip id="19h414" depart="68490.00" from="A1B1" to="D10D11"/>
    <trip id="19h415" depart="68491.00" from="H1H2" to="F1F0"/>
    <trip id="19h416" depart="68491.00" from="A5B5" to="B7A7"/>
    <trip id="19h417" depart="68491.00" from="H0H1" to="H10H11"/>
    <trip id="19h418" depart="68491.00" from="A9B9" to="K8J8"/>
    <trip id="19h419" depart="68491.00" from="C2B2" to="K1L1"/>
    <trip id="19h420" depart="68492.00" from="A9B9" to="H10H11"/>
    <trip id="19h421" depart="68492.00" from="L7K7" to="D10D11"/>
    <trip id="19h422" depart="68492.00" from="A9B9" to="J1J0"/>
    <trip id="19h423" depart="68492.00" from="B7B6" to="K9L9"/>
    <trip id="19h424" depart="68492.00" from="A5B5" to="J1J0"/>
    <trip id="19h425" depart="68492.00" from="L7K7" to="K1L1"/>
    <trip id="19h426" depart="68493.00" from="B11B10" to="J1J0"/>
    <trip id="19h427" depart="68493.00" from="D0D1" to="B7A7"/>
    <trip id="19h428" depart="68493.00" from="A9B9" to="H10H11"/>
    <trip id="19h429" depart="68493.00" from="H0H1" to="H10H11"/>
    <trip id="19h430" depart="68493.00" from="H0H1" to="H10H11"/>
    <trip id="19h431" depart="68494.00" from="D0D1" to="J1J0"/>
    <trip id="19h432" depart="68494.00" from="J11J10" to="B1B0"/>
    <trip id="19h433" depart="68494.00" from="L7K7" to="K5L5"/>
    <trip id="19h434" depart="68494.00" from="A9B9" to="K9L9"/>
    <trip id="19h435" depart="68494.00" from="H0H1" to="K5L5"/>
    <trip id="19h436" depart="68494.00" from="F3E3" to="H10H11"/>
    <trip id="19h437" depart="68495.00" from="L3K3" to="B5C5"/>
    <trip id="19h438" depart="68495.00" from="F11F10" to="K9L9"/>
    <trip id="19h439" depart="68495.00" from="F11F10" to="B3A3"/>
    <trip id="19h440" depart="68496.00" from="L7K7" to="H10H11"/>
    <trip id="19h441" depart="68496.00" from="A9B9" to="B3A3"/>
    <trip id="19h442" depart="68496.00" from="D2D3" to="B7A7"/>
    <trip id="19h443" depart="68496.00" from="J11J10" to="K1L1"/>
    <trip id="19h444" depart="68496.00" from="L3K3" to="K5L5"/>
    <trip id="19h445" depart="68497.00" from="H0H1" to="B7A7"/>
    <trip id="19h446" depart="68497.00" from="B11B10" to="B7A7"/>
    <trip id="19h447" depart="68497.00" from="A9B9" to="K1L1"/>
    <trip id="19h448" depart="68497.00" from="J11J10" to="B1B0"/>
    <trip id="19h449" depart="68497.00" from="A5B5" to="D10D11"/>
    <trip id="19h450" depart="68498.00" from="F11F10" to="K5L5"/>
    <trip id="19h451" depart="68498.00" from="A5B5" to="K9L9"/>
    <trip id="19h452" depart="68498.00" from="H0H1" to="B7A7"/>
    <trip id="19h453" depart="68498.00" from="A5B5" to="K1L1"/>
    <trip id="19h454" depart="68498.00" from="F11F10" to="F1F0"/>