<?xml version="1.0" encoding="UTF-8"?>
<!-- generated on 2020-12-09 03:18:34.656990 by randomTrips.py v1_7_0+0000-714814baed
  options: -n .\data/grid01-bcn_10.net.xml <doubleminus>prefix=5h <doubleminus>fringe-factor 100 -b 18000 -e 21600 -p0.5287119988250845 <doubleminus>binomial 10 -odata/random/random_h_5-bcn_10.trips.rou.xml <doubleminus>edge-permission=passenger
-->
<routes xmlns:xsi="http://www.w3.org/2001/XMLSchema-instance" xsi:noNamespaceSchemaLocation="http://sumo.dlr.de/xsd/routes_file.xsd">
    <trip id="5h0" depart="18000.00" from="B11B10" to="B7A7"/>
    <trip id="5h1" depart="18000.00" from="D0D1" to="B1B0"/>
    <trip id="5h2" depart="18000.00" from="A9B9" to="J1J0"/>
    <trip id="5h3" depart="18001.00" from="J2I2" to="J1J0"/>
    <trip id="5h4" depart="18001.00" from="L7K7" to="D10D11"/>
    <trip id="5h5" depart="18001.00" from="A5B5" to="K5L5"/>
    <trip id="5h6" depart="18002.00" from="A9B9" to="D10D11"/>
    <trip id="5h7" depart="18003.00" from="A9B9" to="B3A3"/>
    <trip id="5h8" depart="18004.00" from="J11J10" to="B3A3"/>
    <trip id="5h9" depart="18004.00" from="B11B10" to="C1C2"/>
    <trip id="5h10" depart="18006.00" from="A1B1" to="B3A3"/>
    <trip id="5h11" depart="18007.00" from="D0D1" to="K9L9"/>
    <trip id="5h12" depart="18007.00" from="J11J10" to="J1J0"/>
    <trip id="5h13" depart="18008.00" from="D0D1" to="F1F0"/>
    <trip id="5h14" depart="18008.00" from="L3K3" to="K5L5"/>
    <trip id="5h15" depart="18008.00" from="J11J10" to="H10H11"/>
    <trip id="5h16" depart="18009.00" from="B11B10" to="B1B0"/>
    <trip id="5h17" depart="18009.00" from="L3K3" to="K9L9"/>
    <trip id="5h18" depart="18009.00" from="F11F10" to="B1B0"/>
    <trip id="5h19" depart="18010.00" from="E4E3" to="H10H11"/>
    <trip id="5h20" depart="18011.00" from="A9B9" to="D10D11"/>
    <trip id="5h21" depart="18011.00" from="H0H1" to="B7A7"/>
    <trip id="5h22" depart="18012.00" from="A9B9" to="J1J0"/>
    <trip id="5h23" depart="18012.00" from="L7K7" to="H10H11"/>
    <trip id="5h24" depart="18012.00" from="D0D1" to="F1F0"/>
    <trip id="5h25" depart="18013.00" from="D0D1" to="D10D11"/>
    <trip id="5h26" depart="18014.00" from="L7K7" to="K5L5"/>
    <trip id="5h27" depart="18014.00" from="F11F10" to="B7A7"/>
    <trip id="5h28" depart="18015.00" from="D0D1" to="K9L9"/>
    <trip id="5h29" depart="18016.00" from="B11B10" to="K9L9"/>
    <trip id="5h30" depart="18016.00" from="F9F8" to="G2F2"/>
    <trip id="5h31" depart="18016.00" from="L7K7" to="B1B0"/>
    <trip id="5h32" depart="18016.00" from="G5G6" to="J1J0"/>
    <trip id="5h33" depart="18016.00" from="L3K3" to="B7A7"/>
    <trip id="5h34" depart="18018.00" from="D2D3" to="K9L9"/>
    <trip id="5h35" depart="18018.00" from="A9B9" to="B9B8"/>
    <trip id="5h36" depart="18019.00" from="L3K3" to="J1J0"/>
    <trip id="5h37" depart="18019.00" from="J8J7" to="D10D11"/>
    <trip id="5h38" depart="18019.00" from="A5B5" to="B3A3"/>
    <trip id="5h39" depart="18020.00" from="D0D1" to="C5D5"/>
    <trip id="5h40" depart="18021.00" from="J11J10" to="J1J0"/>
    <trip id="5h41" depart="18021.00" from="A1B1" to="K5L5"/>
    <trip id="5h42" depart="18022.00" from="A5B5" to="D10D11"/>
    <trip id="5h43" depart="18022.00" from="J11J10" to="K5L5"/>
    <trip id="5h44" depart="18023.00" from="L7K7" to="K5L5"/>
    <trip id="5h45" depart="18023.00" from="J11J10" to="D10D11"/>
    <trip id="5h46" depart="18024.00" from="L3K3" to="K5L5"/>
    <trip id="5h47" depart="18024.00" from="A9B9" to="D10D11"/>
    <trip id="5h48" depart="18025.00" from="L7K7" to="B7A7"/>
    <trip id="5h49" depart="18026.00" from="D0D1" to="J6J5"/>
    <trip id="5h50" depart="18026.00" from="L7K7" to="H10H11"/>
    <trip id="5h51" depart="18027.00" from="H0H1" to="D10D11"/>
    <trip id="5h52" depart="18028.00" from="D0D1" to="K9L9"/>
    <trip id="5h53" depart="18028.00" from="B11B10" to="F1F0"/>
    <trip id="5h54" depart="18029.00" from="A1B1" to="G8F8"/>
    <trip id="5h55" depart="18030.00" from="A9B9" to="F1F0"/>
    <trip id="5h56" depart="18030.00" from="D0D1" to="I8I7"/>
    <trip id="5h57" depart="18031.00" from="J11J10" to="K1L1"/>
    <trip id="5h58" depart="18031.00" from="D0D1" to="B5C5"/>
    <trip id="5h59" depart="18031.00" from="A9B9" to="K5L5"/>
    <trip id="5h60" depart="18034.00" from="B11B10" to="C3C2"/>
    <trip id="5h61" depart="18034.00" from="A9B9" to="J1J0"/>
    <trip id="5h62" depart="18034.00" from="D0D1" to="H10H11"/>
    <trip id="5h63" depart="18035.00" from="C10B10" to="K1L1"/>
    <trip id="5h64" depart="18036.00" from="B11B10" to="J1J0"/>
    <trip id="5h65" depart="18036.00" from="D8D9" to="B3A3"/>
    <trip id="5h66" depart="18036.00" from="D0D1" to="H10H11"/>
    <trip id="5h67" depart="18037.00" from="H0H1" to="B3A3"/>
    <trip id="5h68" depart="18037.00" from="D0D1" to="B7A7"/>
    <trip id="5h69" depart="18037.00" from="A1B1" to="H10H11"/>
    <trip id="5h70" depart="18038.00" from="A5B5" to="B3A3"/>
    <trip id="5h71" depart="18039.00" from="H0H1" to="K1L1"/>
    <trip id="5h72" depart="18039.00" from="K10J10" to="K9L9"/>
    <trip id="5h73" depart="18039.00" from="A1B1" to="D10D11"/>
    <trip id="5h74" depart="18040.00" from="H1H2" to="I6I5"/>
    <trip id="5h75" depart="18040.00" from="J11J10" to="K5L5"/>
    <trip id="5h76" depart="18040.00" from="L7K7" to="K1L1"/>
    <trip id="5h77" depart="18041.00" from="L7K7" to="J1J0"/>
    <trip id="5h78" depart="18042.00" from="L3K3" to="B7A7"/>
    <trip id="5h79" depart="18043.00" from="L3K3" to="B7A7"/>
    <trip id="5h80" depart="18043.00" from="L7K7" to="B1B0"/>
    <trip id="5h81" depart="18044.00" from="A9B9" to="J1J0"/>
    <trip id="5h82" depart="18045.00" from="A9B9" to="B3A3"/>
    <trip id="5h83" depart="18046.00" from="A9B9" to="F1F0"/>
    <trip id="5h84" depart="18046.00" from="A9B9" to="B7A7"/>
    <trip id="5h85" depart="18046.00" from="A1B1" to="H10H11"/>
    <trip id="5h86" depart="18047.00" from="L3K3" to="F4F3"/>
    <trip id="5h87" depart="18047.00" from="A1B1" to="K9L9"/>
    <trip id="5h88" depart="18048.00" from="H0H1" to="B1B0"/>
    <trip id="5h89" depart="18048.00" from="F11F10" to="D10D11"/>
    <trip id="5h90" depart="18048.00" from="J11J10" to="H1I1"/>
    <trip id="5h91" depart="18049.00" from="A9B9" to="B1B0"/>
    <trip id="5h92" depart="18050.00" from="D0D1" to="H10H11"/>
    <trip id="5h93" depart="18051.00" from="A5B5" to="D10D11"/>
    <trip id="5h94" depart="18052.00" from="H0H1" to="J1J0"/>
    <trip id="5h95" depart="18052.00" from="A1B1" to="F1F0"/>
    <trip id="5h96" depart="18052.00" from="L7K7" to="K5L5"/>
    <trip id="5h97" depart="18053.00" from="J11J10" to="F1F0"/>
    <trip id="5h98" depart="18053.00" from="G10F10" to="J1J0"/>
    <trip id="5h99" depart="18053.00" from="B6B5" to="D10D11"/>
    <trip id="5h100" depart="18055.00" from="C5D5" to="K1L1"/>
    <trip id="5h101" depart="18056.00" from="L7K7" to="H3H4"/>
    <trip id="5h102" depart="18056.00" from="F11F10" to="H10H11"/>
    <trip id="5h103" depart="18056.00" from="L7K7" to="K8J8"/>
    <trip id="5h104" depart="18057.00" from="L3K3" to="F9F8"/>
    <trip id="5h105" depart="18059.00" from="F11F10" to="D10D11"/>
    <trip id="5h106" depart="18060.00" from="H5I5" to="H10H11"/>
    <trip id="5h107" depart="18060.00" from="J11J10" to="J1J0"/>
    <trip id="5h108" depart="18061.00" from="F11F10" to="H10H11"/>
    <trip id="5h109" depart="18061.00" from="D9E9" to="K9L9"/>
    <trip id="5h110" depart="18063.00" from="A1B1" to="I8I9"/>
    <trip id="5h111" depart="18063.00" from="H0H1" to="K5L5"/>
    <trip id="5h112" depart="18064.00" from="J11J10" to="D10D11"/>
    <trip id="5h113" depart="18064.00" from="F11F10" to="H10H11"/>
    <trip id="5h114" depart="18064.00" from="A1B1" to="K5L5"/>
    <trip id="5h115" depart="18064.00" from="D4D5" to="B7A7"/>
    <trip id="5h116" depart="18065.00" from="J1K1" to="K5L5"/>
    <trip id="5h117" depart="18065.00" from="D0D1" to="D10D11"/>
    <trip id="5h118" depart="18067.00" from="H0H1" to="F8E8"/>
    <trip id="5h119" depart="18069.00" from="B11B10" to="K1L1"/>
    <trip id="5h120" depart="18069.00" from="A5B5" to="H10H11"/>
    <trip id="5h121" depart="18070.00" from="L7K7" to="B3A3"/>
    <trip id="5h122" depart="18071.00" from="F11F10" to="F1F0"/>
    <trip id="5h123" depart="18071.00" from="A9B9" to="B1B0"/>
    <trip id="5h124" depart="18072.00" from="K5K4" to="K5L5"/>
    <trip id="5h125" depart="18072.00" from="L7K7" to="D10D11"/>
    <trip id="5h126" depart="18072.00" from="L3K3" to="B3A3"/>
    <trip id="5h127" depart="18073.00" from="D0D1" to="B3A3"/>
    <trip id="5h128" depart="18073.00" from="C9D9" to="F1F0"/>
    <trip id="5h129" depart="18074.00" from="H0H1" to="H10H11"/>
    <trip id="5h130" depart="18074.00" from="L3K3" to="F1F0"/>
    <trip id="5h131" depart="18075.00" from="J11J10" to="B7A7"/>
    <trip id="5h132" depart="18075.00" from="F11F10" to="B1B0"/>
    <trip id="5h133" depart="18075.00" from="L3K3" to="B1B0"/>
    <trip id="5h134" depart="18076.00" from="A5B5" to="B7A7"/>
    <trip id="5h135" depart="18076.00" from="H0H1" to="B1B0"/>
    <trip id="5h136" depart="18076.00" from="J11J10" to="B7A7"/>
    <trip id="5h137" depart="18076.00" from="A1B1" to="K1L1"/>
    <trip id="5h138" depart="18077.00" from="F11F10" to="K9L9"/>
    <trip id="5h139" depart="18077.00" from="J11J10" to="K5L5"/>
    <trip id="5h140" depart="18077.00" from="E6E5" to="F1F0"/>
    <trip id="5h141" depart="18077.00" from="A1B1" to="H3G3"/>
    <trip id="5h142" depart="18078.00" from="B11B10" to="J10I10"/>
    <trip id="5h143" depart="18078.00" from="H8I8" to="K5L5"/>
    <trip id="5h144" depart="18079.00" from="D0D1" to="J1J0"/>
    <trip id="5h145" depart="18079.00" from="L7K7" to="B1B0"/>
    <trip id="5h146" depart="18080.00" from="A5B5" to="K1L1"/>
    <trip id="5h147" depart="18080.00" from="C1D1" to="J1J0"/>
    <trip id="5h148" depart="18081.00" from="L3K3" to="D10D11"/>
    <trip id="5h149" depart="18082.00" from="L7K7" to="K5L5"/>
    <trip id="5h150" depart="18082.00" from="H9H10" to="D10D11"/>
    <trip id="5h151" depart="18083.00" from="L3K3" to="H10H11"/>
    <trip id="5h152" depart="18083.00" from="H0H1" to="B1B0"/>
    <trip id="5h153" depart="18084.00" from="A1B1" to="B3A3"/>
    <trip id="5h154" depart="18085.00" from="D0D1" to="C8D8"/>
    <trip id="5h155" depart="18085.00" from="D0D1" to="H10H11"/>
    <trip id="5h156" depart="18085.00" from="B11B10" to="B7A7"/>
    <trip id="5h157" depart="18085.00" from="A9B9" to="D10D11"/>
    <trip id="5h158" depart="18085.00" from="J11J10" to="B5B4"/>
    <trip id="5h159" depart="18086.00" from="L3K3" to="B1B0"/>
    <trip id="5h160" depart="18086.00" from="L7K7" to="K5L5"/>
    <trip id="5h161" depart="18087.00" from="A1B1" to="D10D11"/>
    <trip id="5h162" depart="18087.00" from="L3K3" to="B7A7"/>
    <trip id="5h163" depart="18088.00" from="F11F10" to="B3A3"/>
    <trip id="5h164" depart="18089.00" from="A9B9" to="H10H11"/>
    <trip id="5h165" depart="18089.00" from="J11J10" to="F6F5"/>
    <trip id="5h166" depart="18090.00" from="A1B1" to="F1F0"/>
    <trip id="5h167" depart="18090.00" from="F11F10" to="D10D11"/>
    <trip id="5h168" depart="18090.00" from="L3K3" to="B1B0"/>
    <trip id="5h169" depart="18092.00" from="A1B1" to="B3A3"/>
    <trip id="5h170" depart="18092.00" from="A9B9" to="F1F0"/>
    <trip id="5h171" depart="18093.00" from="D0D1" to="C8D8"/>
    <trip id="5h172" depart="18093.00" from="A5B5" to="J1J0"/>
    <trip id="5h173" depart="18094.00" from="B8B7" to="K9L9"/>
    <trip id="5h174" depart="18096.00" from="A9B9" to="K9L9"/>
    <trip id="5h175" depart="18096.00" from="A1B1" to="K5L5"/>
    <trip id="5h176" depart="18096.00" from="J11J10" to="K5L5"/>
    <trip id="5h177" depart="18096.00" from="B11B10" to="K1L1"/>
    <trip id="5h178" depart="18096.00" from="D0D1" to="B3A3"/>
    <trip id="5h179" depart="18097.00" from="D0D1" to="F1F0"/>
    <trip id="5h180" depart="18099.00" from="A9B9" to="J1J0"/>
    <trip id="5h181" depart="18099.00" from="L3K3" to="K5L5"/>
    <trip id="5h182" depart="18100.00" from="D0D1" to="K9L9"/>
    <trip id="5h183" depart="18100.00" from="A1B1" to="G1H1"/>
    <trip id="5h184" depart="18101.00" from="L7K7" to="K5L5"/>
    <trip id="5h185" depart="18101.00" from="B11B10" to="K5L5"/>
    <trip id="5h186" depart="18101.00" from="I1J1" to="F1F0"/>
    <trip id="5h187" depart="18101.00" from="A1B1" to="B7A7"/>
    <trip id="5h188" depart="18102.00" from="B11B10" to="D10D11"/>
    <trip id="5h189" depart="18102.00" from="D0D1" to="K1L1"/>
    <trip id="5h190" depart="18102.00" from="L3K3" to="H10H11"/>
    <trip id="5h191" depart="18102.00" from="F11F10" to="B7A7"/>
    <trip id="5h192" depart="18102.00" from="D0D1" to="H7H8"/>
    <trip id="5h193" depart="18103.00" from="L7K7" to="B1B0"/>
    <trip id="5h194" depart="18104.00" from="J11J10" to="D10D11"/>
    <trip id="5h195" depart="18104.00" from="F11F10" to="K1L1"/>
    <trip id="5h196" depart="18104.00" from="J11J10" to="F1F0"/>
    <trip id="5h197" depart="18105.00" from="J11J10" to="F1F0"/>
    <trip id="5h198" depart="18105.00" from="A9B9" to="B1B0"/>
    <trip id="5h199" depart="18106.00" from="C8D8" to="K5L5"/>
    <trip id="5h200" depart="18107.00" from="G9G10" to="K3J3"/>
    <trip id="5h201" depart="18108.00" from="H0H1" to="D10D11"/>
    <trip id="5h202" depart="18108.00" from="L3K3" to="D10D11"/>
    <trip id="5h203" depart="18109.00" from="H0H1" to="D10D11"/>
    <trip id="5h204" depart="18109.00" from="H0H1" to="K1L1"/>
    <trip id="5h205" depart="18109.00" from="A1B1" to="K1L1"/>
    <trip id="5h206" depart="18110.00" from="J11J10" to="F9F8"/>
    <trip id="5h207" depart="18111.00" from="L3K3" to="F1F0"/>
    <trip id="5h208" depart="18112.00" from="H0H1" to="K5L5"/>
    <trip id="5h209" depart="18112.00" from="F11F10" to="K5L5"/>
    <trip id="5h210" depart="18113.00" from="A9B9" to="B3A3"/>
    <trip id="5h211" depart="18113.00" from="F11F10" to="D10D11"/>
    <trip id="5h212" depart="18113.00" from="B11B10" to="K9L9"/>
    <trip id="5h213" depart="18114.00" from="L7K7" to="J1J0"/>
    <trip id="5h214" depart="18115.00" from="L7K7" to="F1F0"/>
    <trip id="5h215" depart="18115.00" from="A5B5" to="B3A3"/>
    <trip id="5h216" depart="18115.00" from="B11B10" to="J1J0"/>
    <trip id="5h217" depart="18116.00" from="B11B10" to="H10H11"/>
    <trip id="5h218" depart="18116.00" from="L7K7" to="B3A3"/>
    <trip id="5h219" depart="18117.00" from="A1B1" to="J1J0"/>
    <trip id="5h220" depart="18118.00" from="A1B1" to="F1F0"/>
    <trip id="5h221" depart="18119.00" from="C9D9" to="H10H11"/>
    <trip id="5h222" depart="18119.00" from="B11B10" to="D9E9"/>
    <trip id="5h223" depart="18120.00" from="B11B10" to="H10H11"/>
    <trip id="5h224" depart="18120.00" from="L7K7" to="G3G2"/>
    <trip id="5h225" depart="18121.00" from="F11F10" to="K5L5"/>
    <trip id="5h226" depart="18122.00" from="F11F10" to="K1L1"/>
    <trip id="5h227" depart="18123.00" from="L7K7" to="E6E5"/>
    <trip id="5h228" depart="18123.00" from="A5B5" to="D10D11"/>
    <trip id="5h229" depart="18124.00" from="L7K7" to="K1L1"/>
    <trip id="5h230" depart="18126.00" from="E3E2" to="K9L9"/>
    <trip id="5h231" depart="18126.00" from="H0H1" to="I1J1"/>
    <trip id="5h232" depart="18126.00" from="H0H1" to="B1B0"/>
    <trip id="5h233" depart="18127.00" from="A1B1" to="D10D11"/>
    <trip id="5h234" depart="18127.00" from="H1H2" to="F1F0"/>
    <trip id="5h235" depart="18127.00" from="A5B5" to="B7A7"/>
    <trip id="5h236" depart="18128.00" from="L3K3" to="D10D11"/>
    <trip id="5h237" depart="18130.00" from="H0H1" to="D7C7"/>
    <trip id="5h238" depart="18131.00" from="H0H1" to="H10H11"/>
    <trip id="5h239" depart="18132.00" from="D0D1" to="J1J0"/>
    <trip id="5h240" depart="18132.00" from="J11J10" to="B1B0"/>
    <trip id="5h241" depart="18133.00" from="F3E3" to="H10H11"/>
    <trip id="5h242" depart="18134.00" from="L3K3" to="B5C5"/>
    <trip id="5h243" depart="18135.00" from="F11F10" to="B3A3"/>
    <trip id="5h244" depart="18136.00" from="A5B5" to="F1F0"/>
    <trip id="5h245" depart="18136.00" from="J11J10" to="K1L1"/>
    <trip id="5h246" depart="18136.00" from="L3K3" to="K5L5"/>
    <trip id="5h247" depart="18136.00" from="H0H1" to="B7A7"/>
    <trip id="5h248" depart="18136.00" from="B11B10" to="B7A7"/>
    <trip id="5h249" depart="18137.00" from="H0H1" to="J1J0"/>
    <trip id="5h250" depart="18137.00" from="A5B5" to="D10D11"/>
    <trip id="5h251" depart="18138.00" from="L7K7" to="D10D11"/>
    <trip id="5h252" depart="18138.00" from="A5B5" to="K1L1"/>
    <trip id="5h253" depart="18139.00" from="D0D1" to="J1J0"/>
    <trip id="5h254" depart="18139.00" from="F11F10" to="B1B0"/>
    <trip id="5h255" depart="18140.00" from="B11B10" to="H10H11"/>
    <trip id="5h256" depart="18140.00" from="A9B9" to="H10H11"/>
    <trip id="5h257" depart="18140.00" from="F11F10" to="K1L1"/>
    <trip id="5h258" depart="18140.00" from="D4E4" to="K1L1"/>
    <trip id="5h259" depart="18141.00" from="B3B2" to="B1B0"/>
    <trip id="5h260" depart="18141.00" from="L7K7" to="B1B0"/>
    <trip id="5h261" depart="18143.00" from="F11F10" to="H10H11"/>
    <trip id="5h262" depart="18143.00" from="A1B1" to="D10D11"/>
    <trip id="5h263" depart="18144.00" from="J4I4" to="F1F0"/>
    <trip id="5h264" depart="18145.00" from="A9B9" to="B3A3"/>
    <trip id="5h265" depart="18145.00" from="G6H6" to="J1J0"/>
    <trip id="5h266" depart="18145.00" from="J11J10" to="F1F0"/>
    <trip id="5h267" depart="18145.00" from="F11F10" to="D10D11"/>
    <trip id="5h268" depart="18146.00" from="H0H1" to="B7A7"/>
    <trip id="5h269" depart="18146.00" from="L7K7" to="K5L5"/>
    <trip id="5h270" depart="18147.00" from="D0D1" to="K1L1"/>
    <trip id="5h271" depart="18148.00" from="A9B9" to="B7A7"/>
    <trip id="5h272" depart="18149.00" from="J11J10" to="B7A7"/>
    <trip id="5h273" depart="18149.00" from="J11J10" to="J4I4"/>
    <trip id="5h274" depart="18150.00" from="L7K7" to="K9L9"/>
    <trip id="5h275" depart="18150.00" from="L7K7" to="F1F0"/>
    <trip id="5h276" depart="18151.00" from="L7K7" to="F1F0"/>
    <trip id="5h277" depart="18152.00" from="B11B10" to="K9L9"/>
    <trip id="5h278" depart="18152.00" from="B11B10" to="D7C7"/>
    <trip id="5h279" depart="18153.00" from="J11J10" to="B3A3"/>
    <trip id="5h280" depart="18154.00" from="A1B1" to="K5L5"/>
    <trip id="5h281" depart="18155.00" from="F11F10" to="D2D3"/>
    <trip id="5h282" depart="18155.00" from="F11F10" to="B1B0"/>
    <trip id="5h283" depart="18156.00" from="J6J5" to="J1J0"/>
    <trip id="5h284" depart="18156.00" from="A5B5" to="B3A3"/>
    <trip id="5h285" depart="18157.00" from="D0D1" to="H10H11"/>
    <trip id="5h286" depart="18158.00" from="A1B1" to="B3A3"/>
    <trip id="5h287" depart="18158.00" from="F11F10" to="B1B0"/>
    <trip id="5h288" depart="18159.00" from="A1B1" to="K9L9"/>
    <trip id="5h289" depart="18159.00" from="L7K7" to="D10D11"/>
    <trip id="5h290" depart="18160.00" from="A5B5" to="B7A7"/>
    <trip id="5h291" depart="18160.00" from="L7K7" to="J4I4"/>
    <trip id="5h292" depart="18160.00" from="D0D1" to="K5L5"/>
    <trip id="5h293" depart="18161.00" from="B11B10" to="K9L9"/>
    <trip id="5h294" depart="18162.00" from="H0H1" to="K1L1"/>
    <trip id="5h295" depart="18162.00" from="A5B5" to="J1J0"/>
    <trip id="5h296" depart="18162.00" from="A1B1" to="D10D11"/>
    <trip id="5h297" depart="18163.00" from="A9B9" to="F1F0"/>
    <trip id="5h298" depart="18163.00" from="C1D1" to="B3A3"/>
    <trip id="5h299" depart="18164.00" from="L3K3" to="K5L5"/>
    <trip id="5h300" depart="18164.00" from="D0D1" to="B3A3"/>
    <trip id="5h301" depart="18164.00" from="D0D1" to="F1F0"/>
    <trip id="5h302" depart="18164.00" from="A9B9" to="B7A7"/>
    <trip id="5h303" depart="18165.00" from="B11B10" to="K9L9"/>
    <trip id="5h304" depart="18166.00" from="B11B10" to="K9L9"/>
    <trip id="5h305" depart="18167.00" from="F11F10" to="H10H11"/>
    <trip id="5h306" depart="18169.00" from="L7K7" to="F1F0"/>
    <trip id="5h307" depart="18170.00" from="J11J10" to="J1J0"/>
    <trip id="5h308" depart="18170.00" from="L7K7" to="J1J0"/>
    <trip id="5h309" depart="18171.00" from="B11B10" to="G5H5"/>
    <trip id="5h310" depart="18172.00" from="A5B5" to="F1F0"/>
    <trip id="5h311" depart="18172.00" from="L7K7" to="B3A3"/>
    <trip id="5h312" depart="18173.00" from="L3K3" to="J1J0"/>
    <trip id="5h313" depart="18173.00" from="L7K7" to="B7A7"/>
    <trip id="5h314" depart="18173.00" from="A5B5" to="H10H11"/>
    <trip id="5h315" depart="18174.00" from="H0H1" to="F1F0"/>
    <trip id="5h316" depart="18174.00" from="H0H1" to="B7A7"/>
    <trip id="5h317" depart="18175.00" from="A5B5" to="K5L5"/>
    <trip id="5h318" depart="18175.00" from="B11B10" to="F1F0"/>
    <trip id="5h319" depart="18176.00" from="A5B5" to="B3A3"/>
    <trip id="5h320" depart="18176.00" from="H3G3" to="G5H5"/>
    <trip id="5h321" depart="18177.00" from="D0D1" to="B7A7"/>
    <trip id="5h322" depart="18177.00" from="B11B10" to="F1F0"/>
    <trip id="5h323" depart="18177.00" from="C4B4" to="B1B0"/>
    <trip id="5h324" depart="18177.00" from="J7J6" to="K9L9"/>
    <trip id="5h325" depart="18178.00" from="A1B1" to="K1L1"/>
    <trip id="5h326" depart="18179.00" from="D1D2" to="K1L1"/>
    <trip id="5h327" depart="18179.00" from="A5B5" to="K1L1"/>
    <trip id="5h328" depart="18179.00" from="J10J9" to="H10H11"/>
    <trip id="5h329" depart="18179.00" from="L3K3" to="K1L1"/>
    <trip id="5h330" depart="18181.00" from="A5B5" to="B7A7"/>
    <trip id="5h331" depart="18181.00" from="B9C9" to="C7C8"/>
    <trip id="5h332" depart="18182.00" from="L7K7" to="K1L1"/>
    <trip id="5h333" depart="18182.00" from="L3K3" to="B7A7"/>
    <trip id="5h334" depart="18184.00" from="F11F10" to="C6D6"/>
    <trip id="5h335" depart="18184.00" from="J11J10" to="J9J8"/>
    <trip id="5h336" depart="18185.00" from="F11F10" to="B7A7"/>
    <trip id="5h337" depart="18186.00" from="A5B5" to="K1L1"/>
    <trip id="5h338" depart="18186.00" from="L3K3" to="F1F0"/>
    <trip id="5h339" depart="18186.00" from="L7K7" to="B7A7"/>
    <trip id="5h340" depart="18186.00" from="H0H1" to="B3A3"/>
    <trip id="5h341" depart="18187.00" from="D0D1" to="D10D11"/>
    <trip id="5h342" depart="18187.00" from="E4E5" to="B3A3"/>
    <trip id="5h343" depart="18188.00" from="H4I4" to="K1L1"/>
    <trip id="5h344" depart="18188.00" from="A1B1" to="D8E8"/>
    <trip id="5h345" depart="18188.00" from="B11B10" to="K5L5"/>
    <trip id="5h346" depart="18188.00" from="J11J10" to="K1L1"/>
    <trip id="5h347" depart="18188.00" from="L7K7" to="B3A3"/>
    <trip id="5h348" depart="18189.00" from="H0H1" to="F1F0"/>
    <trip id="5h349" depart="18189.00" from="D0D1" to="J1J0"/>
    <trip id="5h350" depart="18189.00" from="A5B5" to="K1L1"/>
    <trip id="5h351" depart="18190.00" from="B11B10" to="B1B0"/>
    <trip id="5h352" depart="18191.00" from="L3K3" to="K9L9"/>
    <trip id="5h353" depart="18191.00" from="F11F10" to="H10H11"/>
    <trip id="5h354" depart="18192.00" from="L3K3" to="H10H11"/>
    <trip id="5h355" depart="18192.00" from="A1B1" to="B7A7"/>
    <trip id="5h356" depart="18192.00" from="A1B1" to="K1L1"/>
    <trip id="5h357" depart="18193.00" from="F11F10" to="H8I8"/>
    <trip id="5h358" depart="18194.00" from="H6H7" to="J7J6"/>
    <trip id="5h359" depart="18194.00" from="A5B5" to="F1F0"/>
    <trip id="5h360" depart="18195.00" from="I3H3" to="J1J0"/>
    <trip id="5h361" depart="18195.00" from="L7K7" to="H10H11"/>
    <trip id="5h362" depart="18195.00" from="A5B5" to="K1L1"/>
    <trip id="5h363" depart="18196.00" from="J2J1" to="C3C2"/>
    <trip id="5h364" depart="18196.00" from="I6H6" to="H10H11"/>
    <trip id="5h365" depart="18196.00" from="D0D1" to="D10D11"/>
    <trip id="5h366" depart="18196.00" from="F3E3" to="J3J2"/>
    <trip id="5h367" depart="18197.00" from="L3K3" to="B7A7"/>
    <trip id="5h368" depart="18197.00" from="L7K7" to="K5L5"/>
    <trip id="5h369" depart="18198.00" from="D0D1" to="G1H1"/>
    <trip id="5h370" depart="18198.00" from="J11J10" to="K9L9"/>
    <trip id="5h371" depart="18198.00" from="D7C7" to="C8B8"/>
    <trip id="5h372" depart="18199.00" from="A9B9" to="H10H11"/>
    <trip id="5h373" depart="18200.00" from="D0D1" to="B7A7"/>
    <trip id="5h374" depart="18200.00" from="H0H1" to="K5L5"/>
    <trip id="5h375" depart="18200.00" from="F11F10" to="B7A7"/>
    <trip id="5h376" depart="18201.00" from="L7K7" to="J1J0"/>
    <trip id="5h377" depart="18201.00" from="L7K7" to="K5L5"/>
    <trip id="5h378" depart="18201.00" from="A5B5" to="B3A3"/>
    <trip id="5h379" depart="18201.00" from="F11F10" to="F1F0"/>
    <trip id="5h380" depart="18202.00" from="A9B9" to="K1L1"/>
    <trip id="5h381" depart="18203.00" from="A5B5" to="F1F0"/>
    <trip id="5h382" depart="18203.00" from="A5B5" to="J1J0"/>
    <trip id="5h383" depart="18204.00" from="L3K3" to="D10D11"/>
    <trip id="5h384" depart="18204.00" from="A9B9" to="D10D11"/>
    <trip id="5h385" depart="18204.00" from="D0D1" to="F1F0"/>
    <trip id="5h386" depart="18205.00" from="A1B1" to="K5L5"/>
    <trip id="5h387" depart="18205.00" from="K5K4" to="D1E1"/>
    <trip id="5h388" depart="18206.00" from="A1B1" to="K5L5"/>
    <trip id="5h389" depart="18206.00" from="L3K3" to="K5L5"/>
    <trip id="5h390" depart="18206.00" from="D4D5" to="B3A3"/>
    <trip id="5h391" depart="18206.00" from="H0H1" to="B3A3"/>
    <trip id="5h392" depart="18207.00" from="B11B10" to="K5L5"/>
    <trip id="5h393" depart="18207.00" from="H0H1" to="B7A7"/>
    <trip id="5h394" depart="18207.00" from="B11B10" to="B3A3"/>
    <trip id="5h395" depart="18209.00" from="B11B10" to="B7A7"/>
    <trip id="5h396" depart="18209.00" from="L7K7" to="H10H11"/>
    <trip id="5h397" depart="18209.00" from="H0H1" to="C10B10"/>
    <trip id="5h398" depart="18210.00" from="L7K7" to="B7A7"/>
    <trip id="5h399" depart="18210.00" from="G4F4" to="K1L1"/>
    <trip id="5h400" depart="18210.00" from="H8H9" to="K9L9"/>
    <trip id="5h401" depart="18211.00" from="L7K7" to="K5L5"/>
    <trip id="5h402" depart="18211.00" from="A9B9" to="B7A7"/>
    <trip id="5h403" depart="18211.00" from="L7K7" to="B7A7"/>
    <trip id="5h404" depart="18211.00" from="I9J9" to="K9L9"/>
    <trip id="5h405" depart="18212.00" from="G1G2" to="K9L9"/>
    <trip id="5h406" depart="18213.00" from="B11B10" to="B3A3"/>
    <trip id="5h407" depart="18213.00" from="L7K7" to="K1L1"/>
    <trip id="5h408" depart="18213.00" from="L7K7" to="J1J0"/>
    <trip id="5h409" depart="18213.00" from="B11B10" to="J1J0"/>
    <trip id="5h410" depart="18214.00" from="J11J10" to="K9L9"/>
    <trip id="5h411" depart="18214.00" from="G8H8" to="K9L9"/>
    <trip id="5h412" depart="18215.00" from="J11J10" to="B7A7"/>
    <trip id="5h413" depart="18215.00" from="L3K3" to="B3A3"/>
    <trip id="5h414" depart="18215.00" from="B10B9" to="B3A3"/>
    <trip id="5h415" depart="18216.00" from="D0D1" to="J9J8"/>
    <trip id="5h416" depart="18216.00" from="E6E5" to="K5L5"/>
    <trip id="5h417" depart="18216.00" from="A1B1" to="K5L5"/>
    <trip id="5h418" depart="18217.00" from="A5B5" to="D4D5"/>
    <trip id="5h419" depart="18217.00" from="G5G4" to="H7G7"/>
    <trip id="5h420" depart="18217.00" from="L7K7" to="B3A3"/>
    <trip id="5h421" depart="18218.00" from="A5B5" to="B7A7"/>
    <trip id="5h422" depart="18218.00" from="F2E2" to="K5L5"/>
    <trip id="5h423" depart="18219.00" from="C5C4" to="F1F0"/>
    <trip id="5h424" depart="18219.00" from="A9B9" to="D10D11"/>
    <trip id="5h425" depart="18219.00" from="L3K3" to="D10D11"/>
    <trip id="5h426" depart="18220.00" from="F11F10" to="B7A7"/>
    <trip id="5h427" depart="18220.00" from="J11J10" to="J1J0"/>
    <trip id="5h428" depart="18220.00" from="B2B1" to="H10H11"/>
    <trip id="5h429" depart="18222.00" from="L3K3" to="J1J0"/>
    <trip id="5h430" depart="18222.00" from="J11J10" to="B3A3"/>
    <trip id="5h431" depart="18223.00" from="D0D1" to="K9L9"/>
    <trip id="5h432" depart="18223.00" from="D0D1" to="E8E9"/>
    <trip id="5h433" depart="18224.00" from="G2F2" to="K1L1"/>
    <trip id="5h434" depart="18225.00" from="B11B10" to="H10H11"/>
    <trip id="5h435" depart="18225.00" from="B11B10" to="B3A3"/>
    <trip id="5h436" depart="18226.00" from="L3K3" to="D10D11"/>
    <trip id="5h437" depart="18226.00" from="J8J7" to="D10D11"/>
    <trip id="5h438" depart="18227.00" from="L3K3" to="B3A3"/>
    <trip id="5h439" depart="18227.00" from="A9B9" to="K5K4"/>
    <trip id="5h440" depart="18228.00" from="B11B10" to="G3G4"/>
    <trip id="5h441" depart="18228.00" from="L3K3" to="K5L5"/>
    <trip id="5h442" depart="18228.00" from="A9B9" to="K5L5"/>
    <trip id="5h443" depart="18229.00" from="A1B1" to="D1E1"/>
    <trip id="5h444" depart="18229.00" from="L3K3" to="H10H11"/>
    <trip id="5h445" depart="18230.00" from="L3K3" to="K1L1"/>
    <trip id="5h446" depart="18230.00" from="F2E2" to="K9L9"/>
    <trip id="5h447" depart="18231.00" from="J11J10" to="K1L1"/>
    <trip id="5h448" depart="18231.00" from="L3K3" to="J1J0"/>
    <trip id="5h449" depart="18231.00" from="A9B9" to="K1L1"/>
    <trip id="5h450" depart="18232.00" from="F11F10" to="J1J0"/>
    <trip id="5h451" depart="18233.00" from="A1B1" to="K9L9"/>
    <trip id="5h452" depart="18233.00" from="J11J10" to="K5L5"/>
    <trip id="5h453" depart="18235.00" from="I3H3" to="H10H11"/>
    <trip id="5h454" depart="18236.00" from="A5B5" to="B3A3"/>
    <trip id="5h455" depart="18236.00" from="H0H1" to="D10D11"/>
    <trip id="5h456" depart="18236.00" from="C2D2" to="K1L1"/>
    <trip id="5h457" depart="18237.00" from="L3K3" to="G10F10"/>
    <trip id="5h458" depart="18238.00" from="L3K3" to="B3A3"/>
    <trip id="5h459" depart="18239.00" from="H0H1" to="B1B0"/>
    <trip id="5h460" depart="18239.00" from="J11J10" to="F3F2"/>
    <trip id="5h461" depart="18239.00" from="H0H1" to="J10J9"/>
    <trip id="5h462" depart="18240.00" from="A9B9" to="D2D3"/>