<?xml version="1.0" encoding="UTF-8"?>
<!-- generated on 2020-12-09 03:18:44.886145 by randomTrips.py v1_7_0+0000-714814baed
  options: -n .\data/grid01-bcn_10.net.xml <doubleminus>prefix=13h <doubleminus>fringe-factor 100 -b 46800 -e 50400 -p0.23500228474443502 <doubleminus>binomial 10 -odata/random/random_h_13-bcn_10.trips.rou.xml <doubleminus>edge-permission=passenger
-->
<routes xmlns:xsi="http://www.w3.org/2001/XMLSchema-instance" xsi:noNamespaceSchemaLocation="http://sumo.dlr.de/xsd/routes_file.xsd">
    <trip id="13h0" depart="46800.00" from="B11B10" to="B7A7"/>
    <trip id="13h1" depart="46800.00" from="D0D1" to="B1B0"/>
    <trip id="13h2" depart="46800.00" from="F11F10" to="B1B0"/>
    <trip id="13h3" depart="46800.00" from="H0H1" to="H10H11"/>
    <trip id="13h4" depart="46800.00" from="G2H2" to="K1L1"/>
    <trip id="13h5" depart="46800.00" from="J2I2" to="J1J0"/>
    <trip id="13h6" depart="46801.00" from="A5B5" to="K9L9"/>
    <trip id="13h7" depart="46801.00" from="A5B5" to="B3A3"/>
    <trip id="13h8" depart="46801.00" from="F11F10" to="K5L5"/>
    <trip id="13h9" depart="46802.00" from="A9B9" to="D10D11"/>
    <trip id="13h10" depart="46802.00" from="A9B9" to="B3A3"/>
    <trip id="13h11" depart="46802.00" from="H0H1" to="D10D11"/>
    <trip id="13h12" depart="46802.00" from="A9B9" to="C10B10"/>
    <trip id="13h13" depart="46803.00" from="J11J10" to="B3A3"/>
    <trip id="13h14" depart="46803.00" from="L7K7" to="J1J0"/>
    <trip id="13h15" depart="46803.00" from="A1B1" to="D10D11"/>
    <trip id="13h16" depart="46803.00" from="A9B9" to="K9L9"/>
    <trip id="13h17" depart="46803.00" from="H0H1" to="E7E6"/>
    <trip id="13h18" depart="46804.00" from="A9B9" to="H10H11"/>
    <trip id="13h19" depart="46804.00" from="F9G9" to="K5L5"/>
    <trip id="13h20" depart="46804.00" from="A9B9" to="K9L9"/>
    <trip id="13h21" depart="46804.00" from="A1B1" to="B3A3"/>
    <trip id="13h22" depart="46804.00" from="A1B1" to="D8D9"/>
    <trip id="13h23" depart="46805.00" from="J11J10" to="J1J0"/>
    <trip id="13h24" depart="46805.00" from="H0H1" to="B3A3"/>
    <trip id="13h25" depart="46806.00" from="F11F10" to="B7A7"/>
    <trip id="13h26" depart="46806.00" from="H0H1" to="H3H4"/>
    <trip id="13h27" depart="46806.00" from="J11J10" to="H10H11"/>
    <trip id="13h28" depart="46806.00" from="B11B10" to="B1B0"/>
    <trip id="13h29" depart="46807.00" from="A1B1" to="K5L5"/>
    <trip id="13h30" depart="46807.00" from="F11F10" to="B1B0"/>
    <trip id="13h31" depart="46807.00" from="E4E3" to="H10H11"/>
    <trip id="13h32" depart="46807.00" from="L3K3" to="F1F0"/>
    <trip id="13h33" depart="46807.00" from="F11F10" to="J7J6"/>
    <trip id="13h34" depart="46808.00" from="B11B10" to="K9L9"/>
    <trip id="13h35" depart="46808.00" from="A9B9" to="D10D11"/>
    <trip id="13h36" depart="46808.00" from="A9B9" to="B1B0"/>
    <trip id="13h37" depart="46808.00" from="L3K3" to="K5L5"/>
    <trip id="13h38" depart="46808.00" from="A9B9" to="J1J0"/>
    <trip id="13h39" depart="46809.00" from="A5B5" to="K9L9"/>
    <trip id="13h40" depart="46809.00" from="A5B5" to="F1F0"/>
    <trip id="13h41" depart="46809.00" from="D8D9" to="J7I7"/>
    <trip id="13h42" depart="46809.00" from="D0D1" to="D10D11"/>
    <trip id="13h43" depart="46810.00" from="A9B9" to="F1F0"/>
    <trip id="13h44" depart="46810.00" from="B11B10" to="B7A7"/>
    <trip id="13h45" depart="46810.00" from="L7K7" to="K5L5"/>
    <trip id="13h46" depart="46811.00" from="F11F10" to="B7A7"/>
    <trip id="13h47" depart="46811.00" from="A1B1" to="D6D7"/>
    <trip id="13h48" depart="46811.00" from="J11J10" to="F1F0"/>
    <trip id="13h49" depart="46811.00" from="L7K7" to="K9L9"/>
    <trip id="13h50" depart="46811.00" from="B11B10" to="K9L9"/>
    <trip id="13h51" depart="46812.00" from="F9F8" to="G2F2"/>
    <trip id="13h52" depart="46812.00" from="L7K7" to="B1B0"/>
    <trip id="13h53" depart="46812.00" from="G5G6" to="J1J0"/>
    <trip id="13h54" depart="46812.00" from="A5B5" to="K5L5"/>
    <trip id="13h55" depart="46812.00" from="G5G4" to="I10I9"/>
    <trip id="13h56" depart="46812.00" from="F9F8" to="H10H11"/>
    <trip id="13h57" depart="46813.00" from="I8I9" to="B7A7"/>
    <trip id="13h58" depart="46813.00" from="H0H1" to="D10D11"/>
    <trip id="13h59" depart="46813.00" from="J11J10" to="B1B0"/>
    <trip id="13h60" depart="46813.00" from="A9B9" to="B9B8"/>
    <trip id="13h61" depart="46814.00" from="A5B5" to="K5L5"/>
    <trip id="13h62" depart="46814.00" from="J8J7" to="D10D11"/>
    <trip id="13h63" depart="46814.00" from="A5B5" to="B3A3"/>
    <trip id="13h64" depart="46815.00" from="G9H9" to="J1J0"/>
    <trip id="13h65" depart="46815.00" from="H0H1" to="B8B7"/>
    <trip id="13h66" depart="46815.00" from="D0D1" to="C5D5"/>
    <trip id="13h67" depart="46815.00" from="J11J10" to="J1J0"/>
    <trip id="13h68" depart="46815.00" from="J11J10" to="H10H11"/>
    <trip id="13h69" depart="46815.00" from="A1B1" to="K5L5"/>
    <trip id="13h70" depart="46816.00" from="A5B5" to="D10D11"/>
    <trip id="13h71" depart="46816.00" from="A9B9" to="B3A3"/>
    <trip id="13h72" depart="46817.00" from="H0H1" to="B3A3"/>
    <trip id="13h73" depart="46817.00" from="J11J10" to="D10D11"/>
    <trip id="13h74" depart="46818.00" from="J11J10" to="B3A3"/>
    <trip id="13h75" depart="46818.00" from="J8J7" to="F1F0"/>
    <trip id="13h76" depart="46818.00" from="J11J10" to="B7A7"/>
    <trip id="13h77" depart="46818.00" from="A9B9" to="D10D11"/>
    <trip id="13h78" depart="46819.00" from="H0H1" to="F10F9"/>
    <trip id="13h79" depart="46819.00" from="L7K7" to="B7A7"/>
    <trip id="13h80" depart="46819.00" from="A5B5" to="F1F0"/>
    <trip id="13h81" depart="46819.00" from="H0H1" to="G6F6"/>
    <trip id="13h82" depart="46820.00" from="F4F3" to="B7A7"/>
    <trip id="13h83" depart="46820.00" from="L7K7" to="H10H11"/>
    <trip id="13h84" depart="46820.00" from="A1B1" to="J1J0"/>
    <trip id="13h85" depart="46820.00" from="B11B10" to="K5L5"/>
    <trip id="13h86" depart="46820.00" from="B11B10" to="F1F0"/>
    <trip id="13h87" depart="46821.00" from="B11B10" to="B3A3"/>
    <trip id="13h88" depart="46821.00" from="L7K7" to="J1J0"/>
    <trip id="13h89" depart="46821.00" from="F11F10" to="B10B9"/>
    <trip id="13h90" depart="46821.00" from="D0D1" to="H10H11"/>
    <trip id="13h91" depart="46821.00" from="E2E1" to="K5L5"/>
    <trip id="13h92" depart="46822.00" from="A1B1" to="G8F8"/>
    <trip id="13h93" depart="46822.00" from="J9K9" to="K1L1"/>
    <trip id="13h94" depart="46822.00" from="A9B9" to="B1B0"/>
    <trip id="13h95" depart="46822.00" from="E3E2" to="K5L5"/>
    <trip id="13h96" depart="46822.00" from="D0D1" to="I8I7"/>
    <trip id="13h97" depart="46822.00" from="H5H6" to="F6F5"/>
    <trip id="13h98" depart="46822.00" from="H0H1" to="B1B0"/>
    <trip id="13h99" depart="46823.00" from="D0D1" to="B5C5"/>
    <trip id="13h100" depart="46823.00" from="A9B9" to="K5L5"/>
    <trip id="13h101" depart="46825.00" from="A9B9" to="J1J0"/>
    <trip id="13h102" depart="46825.00" from="A1B1" to="C9D9"/>
    <trip id="13h103" depart="46825.00" from="B11B10" to="H10H11"/>
    <trip id="13h104" depart="46825.00" from="A9B9" to="J1J0"/>
    <trip id="13h105" depart="46825.00" from="D0D1" to="H10H11"/>
    <trip id="13h106" depart="46826.00" from="A9B9" to="F1F0"/>
    <trip id="13h107" depart="46826.00" from="A1B1" to="D10D11"/>
    <trip id="13h108" depart="46827.00" from="J11J10" to="H10H11"/>
    <trip id="13h109" depart="46827.00" from="A9B9" to="F1F0"/>
    <trip id="13h110" depart="46827.00" from="B11B10" to="J1J0"/>
    <trip id="13h111" depart="46827.00" from="A5B5" to="F1F0"/>
    <trip id="13h112" depart="46827.00" from="H0H1" to="B1B0"/>
    <trip id="13h113" depart="46827.00" from="F11F10" to="B1B0"/>
    <trip id="13h114" depart="46827.00" from="D4E4" to="B1B0"/>
    <trip id="13h115" depart="46827.00" from="A9B9" to="D10D11"/>
    <trip id="13h116" depart="46828.00" from="J11J10" to="K5L5"/>
    <trip id="13h117" depart="46828.00" from="A1B1" to="B1B0"/>
    <trip id="13h118" depart="46828.00" from="H0H1" to="K1L1"/>
    <trip id="13h119" depart="46828.00" from="A1B1" to="B3A3"/>
    <trip id="13h120" depart="46829.00" from="H0H1" to="H10H11"/>
    <trip id="13h121" depart="46829.00" from="H7G7" to="K1L1"/>
    <trip id="13h122" depart="46829.00" from="H0H1" to="K1L1"/>
    <trip id="13h123" depart="46829.00" from="K10J10" to="K9L9"/>
    <trip id="13h124" depart="46829.00" from="A1B1" to="D10D11"/>
    <trip id="13h125" depart="46829.00" from="I7I6" to="B1B0"/>
    <trip id="13h126" depart="46830.00" from="J11J10" to="K5L5"/>
    <trip id="13h127" depart="46830.00" from="L7K7" to="K1L1"/>
    <trip id="13h128" depart="46830.00" from="D0D1" to="D10D11"/>
    <trip id="13h129" depart="46830.00" from="L3K3" to="K3J3"/>
    <trip id="13h130" depart="46830.00" from="L7K7" to="J1J0"/>
    <trip id="13h131" depart="46831.00" from="J3J2" to="H10H11"/>
    <trip id="13h132" depart="46831.00" from="L3K3" to="K5L5"/>
    <trip id="13h133" depart="46831.00" from="L3K3" to="B7A7"/>
    <trip id="13h134" depart="46832.00" from="A1B1" to="K5L5"/>
    <trip id="13h135" depart="46832.00" from="A9B9" to="K1L1"/>
    <trip id="13h136" depart="46832.00" from="L3K3" to="J1J0"/>
    <trip id="13h137" depart="46832.00" from="A1B1" to="K9L9"/>
    <trip id="13h138" depart="46832.00" from="J11J10" to="F3E3"/>
    <trip id="13h139" depart="46833.00" from="A9B9" to="J1J0"/>
    <trip id="13h140" depart="46833.00" from="F7F6" to="F1F0"/>
    <trip id="13h141" depart="46833.00" from="J11J10" to="D10D11"/>
    <trip id="13h142" depart="46833.00" from="A9B9" to="B3A3"/>
    <trip id="13h143" depart="46833.00" from="A5B5" to="H10H11"/>
    <trip id="13h144" depart="46833.00" from="A9B9" to="F1F0"/>
    <trip id="13h145" depart="46834.00" from="A5B5" to="B7A7"/>
    <trip id="13h146" depart="46834.00" from="A9B9" to="B1B0"/>
    <trip id="13h147" depart="46834.00" from="L7K7" to="H10H11"/>
    <trip id="13h148" depart="46834.00" from="L3K3" to="F4F3"/>
    <trip id="13h149" depart="46835.00" from="A1B1" to="K9L9"/>
    <trip id="13h150" depart="46835.00" from="A1B1" to="I7I6"/>
    <trip id="13h151" depart="46835.00" from="A5B5" to="H10H11"/>
    <trip id="13h152" depart="46835.00" from="L7K7" to="B3A3"/>
    <trip id="13h153" depart="46836.00" from="F11F10" to="F1F0"/>
    <trip id="13h154" depart="46836.00" from="H0H1" to="H4H5"/>
    <trip id="13h155" depart="46836.00" from="A9B9" to="J1J0"/>
    <trip id="13h156" depart="46836.00" from="A9B9" to="B1B0"/>
    <trip id="13h157" depart="46837.00" from="D0D1" to="H10H11"/>
    <trip id="13h158" depart="46837.00" from="A9B9" to="J1J0"/>
    <trip id="13h159" depart="46838.00" from="F11F10" to="J1J0"/>
    <trip id="13h160" depart="46838.00" from="A5B5" to="D10D11"/>
    <trip id="13h161" depart="46838.00" from="A5B5" to="J1J0"/>
    <trip id="13h162" depart="46839.00" from="A1B1" to="F1F0"/>
    <trip id="13h163" depart="46839.00" from="A9B9" to="B3A3"/>
    <trip id="13h164" depart="46839.00" from="A1B1" to="K1L1"/>
    <trip id="13h165" depart="46840.00" from="G10F10" to="J1J0"/>
    <trip id="13h166" depart="46840.00" from="B6B5" to="D10D11"/>
    <trip id="13h167" depart="46840.00" from="H3G3" to="D10D11"/>
    <trip id="13h168" depart="46841.00" from="B11B10" to="K9L9"/>
    <trip id="13h169" depart="46841.00" from="F11F10" to="K9L9"/>
    <trip id="13h170" depart="46841.00" from="A9B9" to="D10D11"/>
    <trip id="13h171" depart="46842.00" from="F11F10" to="K9L9"/>
    <trip id="13h172" depart="46842.00" from="L7K7" to="H3H4"/>
    <trip id="13h173" depart="46842.00" from="A5B5" to="H10H11"/>
    <trip id="13h174" depart="46842.00" from="L7K7" to="K8J8"/>
    <trip id="13h175" depart="46842.00" from="L3K3" to="F9F8"/>
    <trip id="13h176" depart="46843.00" from="L3K3" to="K9L9"/>
    <trip id="13h177" depart="46843.00" from="F11F10" to="D9D10"/>
    <trip id="13h178" depart="46843.00" from="J11J10" to="F1F0"/>
    <trip id="13h179" depart="46844.00" from="B11B10" to="H10H11"/>
    <trip id="13h180" depart="46844.00" from="F11F10" to="D10D11"/>
    <trip id="13h181" depart="46844.00" from="A9B9" to="J1J0"/>
    <trip id="13h182" depart="46845.00" from="J11J10" to="B1B0"/>
    <trip id="13h183" depart="46845.00" from="H0H1" to="K1L1"/>
    <trip id="13h184" depart="46845.00" from="F11F10" to="H10H11"/>
    <trip id="13h185" depart="46846.00" from="H0H1" to="B3A3"/>
    <trip id="13h186" depart="46846.00" from="H2H3" to="J1J0"/>
    <trip id="13h187" depart="46847.00" from="B11B10" to="J1J0"/>
    <trip id="13h188" depart="46847.00" from="A1B1" to="I8I9"/>
    <trip id="13h189" depart="46848.00" from="H0H1" to="K5L5"/>
    <trip id="13h190" depart="46848.00" from="J11J10" to="D10D11"/>
    <trip id="13h191" depart="46848.00" from="A5B5" to="H10H11"/>
    <trip id="13h192" depart="46848.00" from="A1B1" to="K5L5"/>
    <trip id="13h193" depart="46849.00" from="L3K3" to="B3A3"/>
    <trip id="13h194" depart="46849.00" from="A9B9" to="B1B0"/>
    <trip id="13h195" depart="46849.00" from="D0D1" to="D10D11"/>
    <trip id="13h196" depart="46849.00" from="A9B9" to="K5L5"/>
    <trip id="13h197" depart="46850.00" from="D0D1" to="F1F0"/>
    <trip id="13h198" depart="46850.00" from="F2E2" to="H10H11"/>
    <trip id="13h199" depart="46850.00" from="L7K7" to="J1J0"/>
    <trip id="13h200" depart="46850.00" from="F11F10" to="J1J0"/>
    <trip id="13h201" depart="46850.00" from="H0H1" to="F8E8"/>
    <trip id="13h202" depart="46850.00" from="J11J10" to="H2H3"/>
    <trip id="13h203" depart="46850.00" from="H0H1" to="I2H2"/>
    <trip id="13h204" depart="46851.00" from="D0D1" to="H10H11"/>
    <trip id="13h205" depart="46851.00" from="B11B10" to="K1L1"/>
    <trip id="13h206" depart="46852.00" from="A5B5" to="H10H11"/>
    <trip id="13h207" depart="46852.00" from="K5K6" to="F1F0"/>
    <trip id="13h208" depart="46852.00" from="A5B5" to="K9L9"/>
    <trip id="13h209" depart="46852.00" from="L7K7" to="K5L5"/>
    <trip id="13h210" depart="46853.00" from="J11J10" to="B1B0"/>
    <trip id="13h211" depart="46854.00" from="A9B9" to="B1B0"/>
    <trip id="13h212" depart="46854.00" from="A1B1" to="K5K4"/>
    <trip id="13h213" depart="46854.00" from="D0D1" to="B3A3"/>
    <trip id="13h214" depart="46855.00" from="F11F10" to="B3A3"/>
    <trip id="13h215" depart="46855.00" from="D0D1" to="J1J0"/>
    <trip id="13h216" depart="46855.00" from="J11J10" to="B3A3"/>
    <trip id="13h217" depart="46855.00" from="A5B5" to="F3F2"/>
    <trip id="13h218" depart="46855.00" from="L7K7" to="B1B0"/>
    <trip id="13h219" depart="46855.00" from="D0D1" to="K9L9"/>
    <trip id="13h220" depart="46856.00" from="H0H1" to="H10H11"/>
    <trip id="13h221" depart="46856.00" from="D0D1" to="B7A7"/>
    <trip id="13h222" depart="46856.00" from="L3K3" to="F1F0"/>
    <trip id="13h223" depart="46856.00" from="J11J10" to="B7A7"/>
    <trip id="13h224" depart="46856.00" from="F11F10" to="B1B0"/>
    <trip id="13h225" depart="46857.00" from="A9B9" to="K5L5"/>
    <trip id="13h226" depart="46857.00" from="A5B5" to="K5L5"/>
    <trip id="13h227" depart="46857.00" from="L3K3" to="B3A3"/>
    <trip id="13h228" depart="46857.00" from="A9B9" to="B4B3"/>
    <trip id="13h229" depart="46857.00" from="A1B1" to="K1L1"/>
    <trip id="13h230" depart="46857.00" from="B11B10" to="B4B3"/>
    <trip id="13h231" depart="46857.00" from="J11J10" to="H10H11"/>
    <trip id="13h232" depart="46858.00" from="F11F10" to="K9L9"/>
    <trip id="13h233" depart="46858.00" from="J11J10" to="K5L5"/>
    <trip id="13h234" depart="46858.00" from="E6E5" to="F1F0"/>
    <trip id="13h235" depart="46859.00" from="A1B1" to="H3G3"/>
    <trip id="13h236" depart="46859.00" from="B11B10" to="J10I10"/>
    <trip id="13h237" depart="46859.00" from="L7K7" to="H10H11"/>
    <trip id="13h238" depart="46859.00" from="H8I8" to="K5L5"/>
    <trip id="13h239" depart="46860.00" from="D0D1" to="B7A7"/>
    <trip id="13h240" depart="46860.00" from="D0D1" to="F1F0"/>
    <trip id="13h241" depart="46860.00" from="D0D1" to="J1J0"/>
    <trip id="13h242" depart="46860.00" from="A5B5" to="K9L9"/>
    <trip id="13h243" depart="46860.00" from="L3K3" to="B3A3"/>
    <trip id="13h244" depart="46860.00" from="J11J10" to="K1L1"/>
    <trip id="13h245" depart="46861.00" from="A5B5" to="D10D11"/>
    <trip id="13h246" depart="46861.00" from="F5G5" to="B7A7"/>
    <trip id="13h247" depart="46861.00" from="A5B5" to="K5L5"/>
    <trip id="13h248" depart="46862.00" from="J11J10" to="H10H11"/>
    <trip id="13h249" depart="46862.00" from="L7K7" to="K5L5"/>
    <trip id="13h250" depart="46862.00" from="A9B9" to="J1J0"/>
    <trip id="13h251" depart="46862.00" from="B11B10" to="B1B0"/>
    <trip id="13h252" depart="46863.00" from="A5B5" to="J10J9"/>
    <trip id="13h253" depart="46863.00" from="J11J10" to="B7A7"/>
    <trip id="13h254" depart="46863.00" from="B11B10" to="D10D11"/>
    <trip id="13h255" depart="46863.00" from="A1B1" to="B3A3"/>
    <trip id="13h256" depart="46864.00" from="H0H1" to="F1G1"/>
    <trip id="13h257" depart="46864.00" from="J11J10" to="B3A3"/>
    <trip id="13h258" depart="46864.00" from="H0H1" to="F2E2"/>
    <trip id="13h259" depart="46864.00" from="D0D1" to="H10H11"/>
    <trip id="13h260" depart="46864.00" from="B11B10" to="B7A7"/>
    <trip id="13h261" depart="46864.00" from="A9B9" to="D10D11"/>
    <trip id="13h262" depart="46865.00" from="J11J10" to="B5B4"/>
    <trip id="13h263" depart="46865.00" from="H9I9" to="G10F10"/>
    <trip id="13h264" depart="46865.00" from="L3K3" to="B1B0"/>
    <trip id="13h265" depart="46865.00" from="L7K7" to="K5L5"/>
    <trip id="13h266" depart="46865.00" from="A5B5" to="B1B0"/>
    <trip id="13h267" depart="46866.00" from="J11J10" to="H9I9"/>
    <trip id="13h268" depart="46866.00" from="L3K3" to="B7A7"/>
    <trip id="13h269" depart="46866.00" from="B11B10" to="D10D11"/>
    <trip id="13h270" depart="46866.00" from="A5B5" to="G5H5"/>
    <trip id="13h271" depart="46866.00" from="F11F10" to="K5L5"/>
    <trip id="13h272" depart="46866.00" from="J11J10" to="K1L1"/>
    <trip id="13h273" depart="46867.00" from="A5B5" to="B7A7"/>
    <trip id="13h274" depart="46867.00" from="J11J10" to="F6F5"/>
    <trip id="13h275" depart="46868.00" from="A1B1" to="F1F0"/>
    <trip id="13h276" depart="46868.00" from="B11B10" to="B1B0"/>
    <trip id="13h277" depart="46868.00" from="D0D1" to="B1B0"/>
    <trip id="13h278" depart="46869.00" from="L3K3" to="K5L5"/>
    <trip id="13h279" depart="46870.00" from="E4E3" to="B3A3"/>
    <trip id="13h280" depart="46870.00" from="A5B5" to="K5L5"/>
    <trip id="13h281" depart="46870.00" from="I7I6" to="G3F3"/>
    <trip id="13h282" depart="46870.00" from="A9B9" to="F1F0"/>
    <trip id="13h283" depart="46870.00" from="D0D1" to="C8D8"/>
    <trip id="13h284" depart="46870.00" from="B11B10" to="H10H11"/>
    <trip id="13h285" depart="46871.00" from="A5B5" to="J1J0"/>
    <trip id="13h286" depart="46871.00" from="J11J10" to="J1J0"/>
    <trip id="13h287" depart="46871.00" from="F8E8" to="B3A3"/>
    <trip id="13h288" depart="46871.00" from="L7K7" to="J1J0"/>
    <trip id="13h289" depart="46871.00" from="G5G6" to="K9L9"/>
    <trip id="13h290" depart="46871.00" from="D0D1" to="K1L1"/>
    <trip id="13h291" depart="46872.00" from="C5D5" to="D10D11"/>
    <trip id="13h292" depart="46872.00" from="A9B9" to="K9L9"/>
    <trip id="13h293" depart="46872.00" from="A5B5" to="B1B0"/>
    <trip id="13h294" depart="46873.00" from="J11J10" to="K5L5"/>
    <trip id="13h295" depart="46873.00" from="B11B10" to="K1L1"/>
    <trip id="13h296" depart="46873.00" from="D0D1" to="B3A3"/>
    <trip id="13h297" depart="46873.00" from="D0D1" to="F1F0"/>
    <trip id="13h298" depart="46873.00" from="D0D1" to="C9C8"/>
    <trip id="13h299" depart="46874.00" from="J3J2" to="F1F0"/>
    <trip id="13h300" depart="46874.00" from="L7K7" to="K9L9"/>
    <trip id="13h301" depart="46874.00" from="D0D1" to="H10H11"/>
    <trip id="13h302" depart="46875.00" from="A9B9" to="J1J0"/>
    <trip id="13h303" depart="46875.00" from="L3K3" to="K5L5"/>
    <trip id="13h304" depart="46875.00" from="J11J10" to="C3C4"/>
    <trip id="13h305" depart="46875.00" from="D0D1" to="K9L9"/>
    <trip id="13h306" depart="46875.00" from="D0D1" to="D10D11"/>
    <trip id="13h307" depart="46875.00" from="A1B1" to="G1H1"/>
    <trip id="13h308" depart="46876.00" from="L7K7" to="D3D4"/>
    <trip id="13h309" depart="46876.00" from="L7K7" to="K5L5"/>
    <trip id="13h310" depart="46876.00" from="B11B10" to="K5L5"/>
    <trip id="13h311" depart="46876.00" from="I1J1" to="F1F0"/>
    <trip id="13h312" depart="46876.00" from="A1B1" to="B7A7"/>
    <trip id="13h313" depart="46877.00" from="B11B10" to="D10D11"/>
    <trip id="13h314" depart="46877.00" from="D0D1" to="K1L1"/>
    <trip id="13h315" depart="46877.00" from="L3K3" to="H10H11"/>
    <trip id="13h316" depart="46877.00" from="F11F10" to="B7A7"/>
    <trip id="13h317" depart="46877.00" from="D0D1" to="H7H8"/>
    <trip id="13h318" depart="46877.00" from="D0D1" to="J1J0"/>
    <trip id="13h319" depart="46877.00" from="L7K7" to="B1B0"/>
    <trip id="13h320" depart="46878.00" from="D9E9" to="J1J0"/>
    <trip id="13h321" depart="46878.00" from="A1B1" to="K1L1"/>
    <trip id="13h322" depart="46878.00" from="J11J10" to="I7H7"/>
    <trip id="13h323" depart="46879.00" from="A1B1" to="H10H11"/>
    <trip id="13h324" depart="46879.00" from="J11J10" to="F1F0"/>
    <trip id="13h325" depart="46879.00" from="J11J10" to="F1F0"/>
    <trip id="13h326" depart="46879.00" from="A1B1" to="B7A7"/>
    <trip id="13h327" depart="46879.00" from="L7K7" to="G8F8"/>
    <trip id="13h328" depart="46880.00" from="J11J10" to="B7A7"/>
    <trip id="13h329" depart="46880.00" from="J11J10" to="K5L5"/>
    <trip id="13h330" depart="46880.00" from="A5B5" to="D10D11"/>
    <trip id="13h331" depart="46880.00" from="L7K7" to="F7F6"/>
    <trip id="13h332" depart="46881.00" from="G9G10" to="K3J3"/>
    <trip id="13h333" depart="46881.00" from="A1B1" to="J1J0"/>
    <trip id="13h334" depart="46881.00" from="G9G10" to="F1F0"/>
    <trip id="13h335" depart="46881.00" from="A1B1" to="K5L5"/>
    <trip id="13h336" depart="46881.00" from="L7K7" to="C4D4"/>
    <trip id="13h337" depart="46882.00" from="H0H1" to="D10D11"/>
    <trip id="13h338" depart="46882.00" from="H0H1" to="K1L1"/>
    <trip id="13h339" depart="46882.00" from="A1B1" to="K1L1"/>
    <trip id="13h340" depart="46882.00" from="D0D1" to="H10H11"/>
    <trip id="13h341" depart="46883.00" from="J11J10" to="H10H11"/>
    <trip id="13h342" depart="46883.00" from="H0H1" to="B7A7"/>
    <trip id="13h343" depart="46883.00" from="J11J10" to="F9F8"/>
    <trip id="13h344" depart="46883.00" from="F11F10" to="B7A7"/>
    <trip id="13h345" depart="46883.00" from="D0D1" to="K9L9"/>
    <trip id="13h346" depart="46883.00" from="L7K7" to="F4F3"/>
    <trip id="13h347" depart="46883.00" from="L3K3" to="F1F0"/>
    <trip id="13h348" depart="46884.00" from="H0H1" to="K5L5"/>
    <trip id="13h349" depart="46884.00" from="B6B5" to="B1B0"/>
    <trip id="13h350" depart="46885.00" from="A9B9" to="B3A3"/>
    <trip id="13h351" depart="46885.00" from="F11F10" to="D10D11"/>
    <trip id="13h352" depart="46885.00" from="B11B10" to="K9L9"/>
    <trip id="13h353" depart="46886.00" from="L7K7" to="J1J0"/>
    <trip id="13h354" depart="46886.00" from="L3K3" to="K1L1"/>
    <trip id="13h355" depart="46886.00" from="L7K7" to="F1F0"/>
    <trip id="13h356" depart="46887.00" from="A5B5" to="B3A3"/>
    <trip id="13h357" depart="46887.00" from="B11B10" to="J1J0"/>
    <trip id="13h358" depart="46887.00" from="L7K7" to="K5L5"/>
    <trip id="13h359" depart="46887.00" from="H0H1" to="H10H11"/>
    <trip id="13h360" depart="46887.00" from="B11B10" to="H10H11"/>
    <trip id="13h361" depart="46887.00" from="L7K7" to="B3A3"/>
    <trip id="13h362" depart="46888.00" from="A1B1" to="J1J0"/>
    <trip id="13h363" depart="46888.00" from="H0H1" to="F8F7"/>
    <trip id="13h364" depart="46889.00" from="L7K7" to="F1F0"/>
    <trip id="13h365" depart="46889.00" from="A1B1" to="B1B0"/>
    <trip id="13h366" depart="46889.00" from="H0H1" to="D10D11"/>
    <trip id="13h367" depart="46890.00" from="C9D9" to="H10H11"/>
    <trip id="13h368" depart="46890.00" from="D7D8" to="C1C2"/>
    <trip id="13h369" depart="46890.00" from="A5B5" to="D10D11"/>
    <trip id="13h370" depart="46890.00" from="H0H1" to="B7A7"/>
    <trip id="13h371" depart="46890.00" from="B11B10" to="H10H11"/>
    <trip id="13h372" depart="46890.00" from="J11J10" to="F8F7"/>
    <trip id="13h373" depart="46891.00" from="A1B1" to="K9L9"/>
    <trip id="13h374" depart="46891.00" from="C1C2" to="B1B0"/>
    <trip id="13h375" depart="46892.00" from="D0D1" to="H10H11"/>
    <trip id="13h376" depart="46892.00" from="F11F10" to="B1B0"/>
    <trip id="13h377" depart="46892.00" from="L7K7" to="J1J0"/>
    <trip id="13h378" depart="46892.00" from="L7K7" to="E6E5"/>
    <trip id="13h379" depart="46893.00" from="L7K7" to="K1L1"/>
    <trip id="13h380" depart="46893.00" from="F11F10" to="G10F10"/>
    <trip id="13h381" depart="46893.00" from="A5B5" to="D10D11"/>
    <trip id="13h382" depart="46893.00" from="H0H1" to="B3A3"/>
    <trip id="13h383" depart="46894.00" from="B11B10" to="K5L5"/>
    <trip id="13h384" depart="46894.00" from="J8I8" to="D10D11"/>
    <trip id="13h385" depart="46895.00" from="E3E2" to="K9L9"/>
    <trip id="13h386" depart="46895.00" from="H0H1" to="I1J1"/>
    <trip id="13h387" depart="46895.00" from="H0H1" to="B1B0"/>
    <trip id="13h388" depart="46896.00" from="A1B1" to="D10D11"/>
    <trip id="13h389" depart="46896.00" from="H1H2" to="F1F0"/>
    <trip id="13h390" depart="46896.00" from="A5B5" to="B7A7"/>
    <trip id="13h391" depart="46896.00" from="H0H1" to="H10H11"/>
    <trip id="13h392" depart="46896.00" from="A9B9" to="K8J8"/>
    <trip id="13h393" depart="46897.00" from="C2B2" to="K1L1"/>
    <trip id="13h394" depart="46897.00" from="A9B9" to="H10H11"/>
    <trip id="13h395" depart="46897.00" from="L7K7" to="D10D11"/>
    <trip id="13h396" depart="46897.00" from="A9B9" to="J1J0"/>
    <trip id="13h397" depart="46897.00" from="B7B6" to="K9L9"/>
    <trip id="13h398" depart="46898.00" from="A5B5" to="J1J0"/>
    <trip id="13h399" depart="46898.00" from="L7K7" to="K1L1"/>
    <trip id="13h400" depart="46898.00" from="B11B10" to="J1J0"/>
    <trip id="13h401" depart="46898.00" from="D0D1" to="B7A7"/>
    <trip id="13h402" depart="46898.00" from="F11F10" to="K9L9"/>
    <trip id="13h403" depart="46898.00" from="H0H1" to="H10H11"/>
    <trip id="13h404" depart="46899.00" from="H0H1" to="H10H11"/>
    <trip id="13h405" depart="46899.00" from="D0D1" to="J1J0"/>
    <trip id="13h406" depart="46899.00" from="J11J10" to="B1B0"/>
    <trip id="13h407" depart="46899.00" from="L7K7" to="K5L5"/>
    <trip id="13h408" depart="46899.00" from="L7K7" to="D10D11"/>
    <trip id="13h409" depart="46900.00" from="F3E3" to="H10H11"/>
    <trip id="13h410" depart="46900.00" from="L3K3" to="B5C5"/>
    <trip id="13h411" depart="46900.00" from="F11F10" to="K9L9"/>
    <trip id="13h412" depart="46901.00" from="F11F10" to="B3A3"/>
    <trip id="13h413" depart="46901.00" from="L7K7" to="H10H11"/>
    <trip id="13h414" depart="46901.00" from="A5B5" to="B3A3"/>
    <trip id="13h415" depart="46902.00" from="A9B9" to="K1L1"/>
    <trip id="13h416" depart="46902.00" from="L3K3" to="K5L5"/>
    <trip id="13h417" depart="46902.00" from="H0H1" to="B7A7"/>
    <trip id="13h418" depart="46902.00" from="B11B10" to="B7A7"/>
    <trip id="13h419" depart="46903.00" from="A9B9" to="K1L1"/>
    <trip id="13h420" depart="46903.00" from="J11J10" to="B1B0"/>
    <trip id="13h421" depart="46903.00" from="A5B5" to="D10D11"/>
    <trip id="13h422" depart="46903.00" from="F11F10" to="K5L5"/>
    <trip id="13h423" depart="46903.00" from="A5B5" to="K9L9"/>
    <trip id="13h424" depart="46903.00" from="H0H1" to="B7A7"/>
    <trip id="13h425" depart="46904.00" from="A5B5" to="K1L1"/>
    <trip id="13h426" depart="46904.00" from="F11F10" to="F1F0"/>
    <trip id="13h427" depart="46904.00" from="A9B9" to="K1L1"/>
    <trip id="13h428" depart="46904.00" from="D0D1" to="J1J0"/>
    <trip id="13h429" depart="46904.00" from="F11F10" to="B1B0"/>
    <trip id="13h430" depart="46905.00" from="B11B10" to="H10H11"/>
    <trip id="13h431" depart="46905.00" from="A9B9" to="H10H11"/>
    <trip id="13h432" depart="46905.00" from="F11F10" to="K1L1"/>
    <trip id="13h433" depart="46905.00" from="D4E4" to="K1L1"/>
    <trip id="13h434" depart="46906.00" from="J8I8" to="K1L1"/>
    <trip id="13h435" depart="46906.00" from="B3B2" to="B1B0"/>
    <trip id="13h436" depart="46906.00" from="L7K7" to="B1B0"/>
    <trip id="13h437" depart="46906.00" from="J11J10" to="K1L1"/>
    <trip id="13h438" depart="46906.00" from="L7K7" to="D8E8"/>
    <trip id="13h439" depart="46907.00" from="H0H1" to="J1J0"/>
    <trip id="13h440" depart="46907.00" from="A9B9" to="H10H11"/>
    <trip id="13h441" depart="46907.00" from="A1B1" to="B1B0"/>
    <trip id="13h442" depart="46907.00" from="H0H1" to="H10H11"/>
    <trip id="13h443" depart="46908.00" from="B5B4" to="C5C6"/>
    <trip id="13h444" depart="46908.00" from="J4I4" to="F1F0"/>
    <trip id="13h445" depart="46908.00" from="A9B9" to="B3A3"/>
    <trip id="13h446" depart="46908.00" from="G6H6" to="J1J0"/>
    <trip id="13h447" depart="46909.00" from="J11J10" to="F1F0"/>
    <trip id="13h448" depart="46909.00" from="A9B9" to="K5L5"/>
    <trip id="13h449" depart="46909.00" from="F11F10" to="D10D11"/>
    <trip id="13h450" depart="46909.00" from="G6H6" to="J1J0"/>
    <trip id="13h451" depart="46909.00" from="B11B10" to="B3A3"/>
    <trip id="13h452" depart="46909.00" from="B11B10" to="B1B0"/>
    <trip id="13h453" depart="46910.00" from="D0D1" to="B3A3"/>
    <trip id="13h454" depart="46911.00" from="J11J10" to="F1F0"/>