<?xml version="1.0" encoding="UTF-8"?>
<!-- generated on 2020-12-09 03:18:46.174409 by randomTrips.py v1_7_0+0000-714814baed
  options: -n .\data/grid01-bcn_10.net.xml <doubleminus>prefix=14h <doubleminus>fringe-factor 100 -b 50400 -e 54000 -p0.2222222222222222 <doubleminus>binomial 10 -odata/random/random_h_14-bcn_10.trips.rou.xml <doubleminus>edge-permission=passenger
-->
<routes xmlns:xsi="http://www.w3.org/2001/XMLSchema-instance" xsi:noNamespaceSchemaLocation="http://sumo.dlr.de/xsd/routes_file.xsd">
    <trip id="14h0" depart="50400.00" from="B11B10" to="B7A7"/>
    <trip id="14h1" depart="50400.00" from="D0D1" to="B1B0"/>
    <trip id="14h2" depart="50400.00" from="F11F10" to="B1B0"/>
    <trip id="14h3" depart="50400.00" from="H0H1" to="H10H11"/>
    <trip id="14h4" depart="50400.00" from="G2H2" to="K1L1"/>
    <trip id="14h5" depart="50400.00" from="J2I2" to="J1J0"/>
    <trip id="14h6" depart="50401.00" from="A5B5" to="K9L9"/>
    <trip id="14h7" depart="50401.00" from="A5B5" to="B3A3"/>
    <trip id="14h8" depart="50401.00" from="F11F10" to="K5L5"/>
    <trip id="14h9" depart="50402.00" from="A9B9" to="D10D11"/>
    <trip id="14h10" depart="50402.00" from="A9B9" to="B3A3"/>
    <trip id="14h11" depart="50402.00" from="H0H1" to="D10D11"/>
    <trip id="14h12" depart="50402.00" from="A9B9" to="C10B10"/>
    <trip id="14h13" depart="50403.00" from="J11J10" to="B3A3"/>
    <trip id="14h14" depart="50403.00" from="L7K7" to="J1J0"/>
    <trip id="14h15" depart="50403.00" from="A1B1" to="D10D11"/>
    <trip id="14h16" depart="50403.00" from="A9B9" to="K9L9"/>
    <trip id="14h17" depart="50403.00" from="H0H1" to="E7E6"/>
    <trip id="14h18" depart="50404.00" from="A9B9" to="H10H11"/>
    <trip id="14h19" depart="50404.00" from="F9G9" to="K5L5"/>
    <trip id="14h20" depart="50404.00" from="A9B9" to="K9L9"/>
    <trip id="14h21" depart="50404.00" from="A1B1" to="B3A3"/>
    <trip id="14h22" depart="50404.00" from="A1B1" to="D8D9"/>
    <trip id="14h23" depart="50405.00" from="J11J10" to="J1J0"/>
    <trip id="14h24" depart="50405.00" from="H0H1" to="B3A3"/>
    <trip id="14h25" depart="50405.00" from="D0D1" to="K9L9"/>
    <trip id="14h26" depart="50405.00" from="F11F10" to="B7A7"/>
    <trip id="14h27" depart="50406.00" from="H0H1" to="H3H4"/>
    <trip id="14h28" depart="50406.00" from="J11J10" to="H10H11"/>
    <trip id="14h29" depart="50406.00" from="B11B10" to="B1B0"/>
    <trip id="14h30" depart="50407.00" from="A1B1" to="K5L5"/>
    <trip id="14h31" depart="50407.00" from="F11F10" to="B1B0"/>
    <trip id="14h32" depart="50407.00" from="E4E3" to="H10H11"/>
    <trip id="14h33" depart="50407.00" from="L3K3" to="F1F0"/>
    <trip id="14h34" depart="50407.00" from="F11F10" to="J7J6"/>
    <trip id="14h35" depart="50407.00" from="B11B10" to="K9L9"/>
    <trip id="14h36" depart="50408.00" from="F11F10" to="B3A3"/>
    <trip id="14h37" depart="50408.00" from="B11B10" to="H10H11"/>
    <trip id="14h38" depart="50408.00" from="A9B9" to="B1B0"/>
    <trip id="14h39" depart="50408.00" from="L3K3" to="K5L5"/>
    <trip id="14h40" depart="50408.00" from="A9B9" to="J1J0"/>
    <trip id="14h41" depart="50408.00" from="A5B5" to="K9L9"/>
    <trip id="14h42" depart="50409.00" from="A5B5" to="F1F0"/>
    <trip id="14h43" depart="50409.00" from="D8D9" to="J7I7"/>
    <trip id="14h44" depart="50409.00" from="D0D1" to="D10D11"/>
    <trip id="14h45" depart="50409.00" from="A9B9" to="F1F0"/>
    <trip id="14h46" depart="50409.00" from="B11B10" to="B7A7"/>
    <trip id="14h47" depart="50410.00" from="L3K3" to="H10H11"/>
    <trip id="14h48" depart="50410.00" from="L7K7" to="K5L5"/>
    <trip id="14h49" depart="50410.00" from="F11F10" to="B7A7"/>
    <trip id="14h50" depart="50410.00" from="A1B1" to="D6D7"/>
    <trip id="14h51" depart="50410.00" from="J11J10" to="F1F0"/>
    <trip id="14h52" depart="50410.00" from="L7K7" to="K9L9"/>
    <trip id="14h53" depart="50411.00" from="B11B10" to="K9L9"/>
    <trip id="14h54" depart="50411.00" from="F9F8" to="G2F2"/>
    <trip id="14h55" depart="50411.00" from="L7K7" to="B1B0"/>
    <trip id="14h56" depart="50411.00" from="G5G6" to="J1J0"/>
    <trip id="14h57" depart="50412.00" from="A5B5" to="K5L5"/>
    <trip id="14h58" depart="50412.00" from="G5G4" to="I10I9"/>
    <trip id="14h59" depart="50412.00" from="F9F8" to="H10H11"/>
    <trip id="14h60" depart="50412.00" from="I8I9" to="B7A7"/>
    <trip id="14h61" depart="50412.00" from="H0H1" to="D10D11"/>
    <trip id="14h62" depart="50412.00" from="J11J10" to="B1B0"/>
    <trip id="14h63" depart="50413.00" from="A9B9" to="B9B8"/>
    <trip id="14h64" depart="50413.00" from="A5B5" to="K5L5"/>
    <trip id="14h65" depart="50413.00" from="J8J7" to="D10D11"/>
    <trip id="14h66" depart="50414.00" from="A5B5" to="B3A3"/>
    <trip id="14h67" depart="50414.00" from="G9H9" to="J1J0"/>
    <trip id="14h68" depart="50414.00" from="H0H1" to="B8B7"/>
    <trip id="14h69" depart="50414.00" from="D0D1" to="C5D5"/>
    <trip id="14h70" depart="50415.00" from="J11J10" to="J1J0"/>
    <trip id="14h71" depart="50415.00" from="J11J10" to="H10H11"/>
    <trip id="14h72" depart="50415.00" from="A1B1" to="B1B0"/>
    <trip id="14h73" depart="50415.00" from="A5B5" to="D10D11"/>
    <trip id="14h74" depart="50416.00" from="A9B9" to="B3A3"/>
    <trip id="14h75" depart="50416.00" from="H0H1" to="B3A3"/>
    <trip id="14h76" depart="50417.00" from="J11J10" to="D10D11"/>
    <trip id="14h77" depart="50417.00" from="J11J10" to="B3A3"/>
    <trip id="14h78" depart="50418.00" from="J8J7" to="F1F0"/>
    <trip id="14h79" depart="50418.00" from="J11J10" to="B7A7"/>
    <trip id="14h80" depart="50418.00" from="A9B9" to="D10D11"/>
    <trip id="14h81" depart="50418.00" from="H0H1" to="F10F9"/>
    <trip id="14h82" depart="50418.00" from="L7K7" to="B7A7"/>
    <trip id="14h83" depart="50419.00" from="A5B5" to="F1F0"/>
    <trip id="14h84" depart="50419.00" from="H0H1" to="G6F6"/>
    <trip id="14h85" depart="50419.00" from="F4F3" to="B7A7"/>
    <trip id="14h86" depart="50419.00" from="L7K7" to="H10H11"/>
    <trip id="14h87" depart="50420.00" from="A1B1" to="J1J0"/>
    <trip id="14h88" depart="50420.00" from="B11B10" to="K5L5"/>
    <trip id="14h89" depart="50420.00" from="B11B10" to="F1F0"/>
    <trip id="14h90" depart="50420.00" from="B11B10" to="B3A3"/>
    <trip id="14h91" depart="50420.00" from="L7K7" to="J1J0"/>
    <trip id="14h92" depart="50420.00" from="F11F10" to="B10B9"/>
    <trip id="14h93" depart="50420.00" from="D0D1" to="H10H11"/>
    <trip id="14h94" depart="50421.00" from="A9B9" to="F1F0"/>
    <trip id="14h95" depart="50421.00" from="A1B1" to="G8F8"/>
    <trip id="14h96" depart="50421.00" from="J9K9" to="K1L1"/>
    <trip id="14h97" depart="50421.00" from="A9B9" to="B1B0"/>
    <trip id="14h98" depart="50422.00" from="E3E2" to="K5L5"/>
    <trip id="14h99" depart="50422.00" from="D0D1" to="I8I7"/>
    <trip id="14h100" depart="50422.00" from="H5H6" to="F6F5"/>
    <trip id="14h101" depart="50422.00" from="H0H1" to="B1B0"/>
    <trip id="14h102" depart="50422.00" from="D0D1" to="B5C5"/>
    <trip id="14h103" depart="50422.00" from="A9B9" to="K5L5"/>
    <trip id="14h104" depart="50424.00" from="A9B9" to="J1J0"/>
    <trip id="14h105" depart="50424.00" from="A1B1" to="C9D9"/>
    <trip id="14h106" depart="50425.00" from="B11B10" to="H10H11"/>
    <trip id="14h107" depart="50425.00" from="A9B9" to="J1J0"/>
    <trip id="14h108" depart="50425.00" from="D0D1" to="H10H11"/>
    <trip id="14h109" depart="50425.00" from="A9B9" to="F1F0"/>
    <trip id="14h110" depart="50426.00" from="A1B1" to="D10D11"/>
    <trip id="14h111" depart="50426.00" from="J11J10" to="H10H11"/>
    <trip id="14h112" depart="50426.00" from="A9B9" to="F1F0"/>
    <trip id="14h113" depart="50426.00" from="B11B10" to="J1J0"/>
    <trip id="14h114" depart="50426.00" from="A5B5" to="F1F0"/>
    <trip id="14h115" depart="50426.00" from="H0H1" to="B1B0"/>
    <trip id="14h116" depart="50427.00" from="F11F10" to="B1B0"/>
    <trip id="14h117" depart="50427.00" from="D4E4" to="B1B0"/>
    <trip id="14h118" depart="50427.00" from="A9B9" to="D10D11"/>
    <trip id="14h119" depart="50427.00" from="J11J10" to="K5L5"/>
    <trip id="14h120" depart="50427.00" from="A1B1" to="B1B0"/>
    <trip id="14h121" depart="50427.00" from="H0H1" to="K1L1"/>
    <trip id="14h122" depart="50428.00" from="A1B1" to="B3A3"/>
    <trip id="14h123" depart="50428.00" from="H0H1" to="H10H11"/>
    <trip id="14h124" depart="50428.00" from="H7G7" to="K1L1"/>
    <trip id="14h125" depart="50428.00" from="H0H1" to="K1L1"/>
    <trip id="14h126" depart="50428.00" from="K10J10" to="K9L9"/>
    <trip id="14h127" depart="50428.00" from="A1B1" to="D10D11"/>
    <trip id="14h128" depart="50429.00" from="I7I6" to="B1B0"/>
    <trip id="14h129" depart="50429.00" from="J11J10" to="K5L5"/>
    <trip id="14h130" depart="50429.00" from="L7K7" to="K1L1"/>
    <trip id="14h131" depart="50429.00" from="D0D1" to="D10D11"/>
    <trip id="14h132" depart="50429.00" from="L3K3" to="K3J3"/>
    <trip id="14h133" depart="50430.00" from="L7K7" to="J1J0"/>
    <trip id="14h134" depart="50430.00" from="J11J10" to="K9L9"/>
    <trip id="14h135" depart="50430.00" from="J3J2" to="H10H11"/>
    <trip id="14h136" depart="50430.00" from="J11J10" to="C1D1"/>
    <trip id="14h137" depart="50430.00" from="L3K3" to="B7A7"/>
    <trip id="14h138" depart="50431.00" from="A1B1" to="K5L5"/>
    <trip id="14h139" depart="50431.00" from="A9B9" to="K1L1"/>
    <trip id="14h140" depart="50431.00" from="L3K3" to="J1J0"/>
    <trip id="14h141" depart="50431.00" from="A1B1" to="K9L9"/>
    <trip id="14h142" depart="50431.00" from="J11J10" to="F3E3"/>
    <trip id="14h143" depart="50432.00" from="A9B9" to="J1J0"/>
    <trip id="14h144" depart="50432.00" from="F7F6" to="F1F0"/>
    <trip id="14h145" depart="50432.00" from="J11J10" to="D10D11"/>
    <trip id="14h146" depart="50432.00" from="A9B9" to="B3A3"/>
    <trip id="14h147" depart="50432.00" from="A5B5" to="H10H11"/>
    <trip id="14h148" depart="50433.00" from="A9B9" to="F1F0"/>
    <trip id="14h149" depart="50433.00" from="A5B5" to="B7A7"/>
    <trip id="14h150" depart="50433.00" from="A9B9" to="B1B0"/>
    <trip id="14h151" depart="50433.00" from="L7K7" to="H10H11"/>
    <trip id="14h152" depart="50433.00" from="L3K3" to="F4F3"/>
    <trip id="14h153" depart="50434.00" from="A9B9" to="B1B0"/>
    <trip id="14h154" depart="50434.00" from="A1B1" to="I7I6"/>
    <trip id="14h155" depart="50434.00" from="A5B5" to="H10H11"/>
    <trip id="14h156" depart="50434.00" from="L7K7" to="B3A3"/>
    <trip id="14h157" depart="50435.00" from="F11F10" to="F1F0"/>
    <trip id="14h158" depart="50435.00" from="L3K3" to="K9L9"/>
    <trip id="14h159" depart="50435.00" from="H0H1" to="H4H5"/>
    <trip id="14h160" depart="50435.00" from="A9B9" to="J1J0"/>
    <trip id="14h161" depart="50435.00" from="A9B9" to="B1B0"/>
    <trip id="14h162" depart="50436.00" from="D0D1" to="H10H11"/>
    <trip id="14h163" depart="50436.00" from="A9B9" to="J1J0"/>
    <trip id="14h164" depart="50437.00" from="F11F10" to="J1J0"/>
    <trip id="14h165" depart="50437.00" from="A5B5" to="D10D11"/>
    <trip id="14h166" depart="50437.00" from="A5B5" to="J1J0"/>
    <trip id="14h167" depart="50438.00" from="A1B1" to="F1F0"/>
    <trip id="14h168" depart="50438.00" from="A9B9" to="B3A3"/>
    <trip id="14h169" depart="50438.00" from="A1B1" to="K1L1"/>
    <trip id="14h170" depart="50439.00" from="G10F10" to="J1J0"/>
    <trip id="14h171" depart="50439.00" from="B6B5" to="D10D11"/>
    <trip id="14h172" depart="50439.00" from="H3G3" to="D10D11"/>
    <trip id="14h173" depart="50440.00" from="B11B10" to="K9L9"/>
    <trip id="14h174" depart="50440.00" from="F11F10" to="K9L9"/>
    <trip id="14h175" depart="50440.00" from="A9B9" to="D10D11"/>
    <trip id="14h176" depart="50441.00" from="F11F10" to="K9L9"/>
    <trip id="14h177" depart="50441.00" from="H6H7" to="B3A3"/>
    <trip id="14h178" depart="50441.00" from="A5B5" to="H10H11"/>
    <trip id="14h179" depart="50441.00" from="L7K7" to="K8J8"/>
    <trip id="14h180" depart="50441.00" from="L3K3" to="F9F8"/>
    <trip id="14h181" depart="50442.00" from="L3K3" to="K9L9"/>
    <trip id="14h182" depart="50442.00" from="F11F10" to="D9D10"/>
    <trip id="14h183" depart="50442.00" from="J11J10" to="F1F0"/>
    <trip id="14h184" depart="50443.00" from="B11B10" to="H10H11"/>
    <trip id="14h185" depart="50443.00" from="F11F10" to="D10D11"/>
    <trip id="14h186" depart="50443.00" from="A9B9" to="J1J0"/>
    <trip id="14h187" depart="50444.00" from="J11J10" to="B1B0"/>
    <trip id="14h188" depart="50444.00" from="H0H1" to="K1L1"/>
    <trip id="14h189" depart="50444.00" from="F11F10" to="H10H11"/>
    <trip id="14h190" depart="50445.00" from="F11F10" to="F1F0"/>
    <trip id="14h191" depart="50445.00" from="H0H1" to="B3A3"/>
    <trip id="14h192" depart="50445.00" from="H2H3" to="J1J0"/>
    <trip id="14h193" depart="50446.00" from="B11B10" to="J1J0"/>
    <trip id="14h194" depart="50446.00" from="A1B1" to="I8I9"/>
    <trip id="14h195" depart="50446.00" from="A5B5" to="J10J9"/>
    <trip id="14h196" depart="50446.00" from="H3H4" to="K5L5"/>
    <trip id="14h197" depart="50447.00" from="J11J10" to="D10D11"/>
    <trip id="14h198" depart="50447.00" from="A5B5" to="H10H11"/>
    <trip id="14h199" depart="50447.00" from="A1B1" to="K5L5"/>
    <trip id="14h200" depart="50447.00" from="L3K3" to="B3A3"/>
    <trip id="14h201" depart="50447.00" from="A9B9" to="B1B0"/>
    <trip id="14h202" depart="50448.00" from="D0D1" to="D10D11"/>
    <trip id="14h203" depart="50448.00" from="A9B9" to="K5L5"/>
    <trip id="14h204" depart="50448.00" from="D0D1" to="F1F0"/>
    <trip id="14h205" depart="50448.00" from="F2E2" to="H10H11"/>
    <trip id="14h206" depart="50448.00" from="L7K7" to="J1J0"/>
    <trip id="14h207" depart="50449.00" from="F11F10" to="J1J0"/>
    <trip id="14h208" depart="50449.00" from="H0H1" to="F8E8"/>
    <trip id="14h209" depart="50449.00" from="J11J10" to="H2H3"/>
    <trip id="14h210" depart="50449.00" from="H0H1" to="I2H2"/>
    <trip id="14h211" depart="50450.00" from="D0D1" to="H10H11"/>
    <trip id="14h212" depart="50450.00" from="B11B10" to="K1L1"/>
    <trip id="14h213" depart="50450.00" from="A5B5" to="H10H11"/>
    <trip id="14h214" depart="50451.00" from="K5K6" to="F1F0"/>
    <trip id="14h215" depart="50451.00" from="A5B5" to="K9L9"/>
    <trip id="14h216" depart="50451.00" from="L7K7" to="K5L5"/>
    <trip id="14h217" depart="50452.00" from="J11J10" to="B1B0"/>
    <trip id="14h218" depart="50452.00" from="A9B9" to="B1B0"/>
    <trip id="14h219" depart="50453.00" from="A1B1" to="K5K4"/>
    <trip id="14h220" depart="50453.00" from="D0D1" to="B3A3"/>
    <trip id="14h221" depart="50453.00" from="F11F10" to="B3A3"/>
    <trip id="14h222" depart="50453.00" from="D0D1" to="J1J0"/>
    <trip id="14h223" depart="50454.00" from="J11J10" to="B3A3"/>
    <trip id="14h224" depart="50454.00" from="A5B5" to="F3F2"/>
    <trip id="14h225" depart="50454.00" from="L7K7" to="B1B0"/>
    <trip id="14h226" depart="50454.00" from="D0D1" to="K9L9"/>
    <trip id="14h227" depart="50454.00" from="H0H1" to="H10H11"/>
    <trip id="14h228" depart="50454.00" from="D0D1" to="B7A7"/>
    <trip id="14h229" depart="50454.00" from="L3K3" to="F1F0"/>
    <trip id="14h230" depart="50455.00" from="J11J10" to="B7A7"/>
    <trip id="14h231" depart="50455.00" from="F11F10" to="B1B0"/>
    <trip id="14h232" depart="50455.00" from="A9B9" to="K5L5"/>
    <trip id="14h233" depart="50455.00" from="A5B5" to="K5L5"/>
    <trip id="14h234" depart="50455.00" from="L3K3" to="B3A3"/>
    <trip id="14h235" depart="50455.00" from="A9B9" to="B4B3"/>
    <trip id="14h236" depart="50456.00" from="A1B1" to="K1L1"/>
    <trip id="14h237" depart="50456.00" from="B11B10" to="B4B3"/>
    <trip id="14h238" depart="50456.00" from="J11J10" to="H10H11"/>
    <trip id="14h239" depart="50456.00" from="F11F10" to="K9L9"/>
    <trip id="14h240" depart="50456.00" from="J11J10" to="K5L5"/>
    <trip id="14h241" depart="50457.00" from="E6E5" to="F1F0"/>
    <trip id="14h242" depart="50457.00" from="A1B1" to="H3G3"/>
    <trip id="14h243" depart="50457.00" from="B11B10" to="J10I10"/>
    <trip id="14h244" depart="50458.00" from="L7K7" to="H10H11"/>
    <trip id="14h245" depart="50458.00" from="H8I8" to="K5L5"/>
    <trip id="14h246" depart="50458.00" from="D0D1" to="B7A7"/>
    <trip id="14h247" depart="50458.00" from="D0D1" to="F1F0"/>
    <trip id="14h248" depart="50458.00" from="D0D1" to="J1J0"/>
    <trip id="14h249" depart="50459.00" from="A5B5" to="K9L9"/>
    <trip id="14h250" depart="50459.00" from="L3K3" to="B3A3"/>
    <trip id="14h251" depart="50459.00" from="J11J10" to="K1L1"/>
    <trip id="14h252" depart="50459.00" from="A5B5" to="D10D11"/>
    <trip id="14h253" depart="50460.00" from="F5G5" to="B7A7"/>
    <trip id="14h254" depart="50460.00" from="A5B5" to="K5L5"/>
    <trip id="14h255" depart="50460.00" from="J11J10" to="H10H11"/>
    <trip id="14h256" depart="50461.00" from="L7K7" to="K5L5"/>
    <trip id="14h257" depart="50461.00" from="A9B9" to="J1J0"/>
    <trip id="14h258" depart="50461.00" from="B11B10" to="B1B0"/>
    <trip id="14h259" depart="50461.00" from="A5B5" to="J10J9"/>
    <trip id="14h260" depart="50461.00" from="J11J10" to="B7A7"/>
    <trip id="14h261" depart="50462.00" from="B11B10" to="D10D11"/>
    <trip id="14h262" depart="50462.00" from="A1B1" to="B3A3"/>
    <trip id="14h263" depart="50462.00" from="H0H1" to="F1G1"/>
    <trip id="14h264" depart="50462.00" from="B11B10" to="K1L1"/>
    <trip id="14h265" depart="50462.00" from="D0D1" to="C8D8"/>
    <trip id="14h266" depart="50463.00" from="D0D1" to="H10H11"/>
    <trip id="14h267" depart="50463.00" from="B11B10" to="B7A7"/>
    <trip id="14h268" depart="50463.00" from="A9B9" to="D10D11"/>
    <trip id="14h269" depart="50463.00" from="J11J10" to="B5B4"/>
    <trip id="14h270" depart="50463.00" from="H9I9" to="G10F10"/>
    <trip id="14h271" depart="50464.00" from="L3K3" to="B1B0"/>
    <trip id="14h272" depart="50464.00" from="L7K7" to="K5L5"/>
    <trip id="14h273" depart="50464.00" from="A5B5" to="B1B0"/>
    <trip id="14h274" depart="50464.00" from="J11J10" to="H9I9"/>
    <trip id="14h275" depart="50464.00" from="L3K3" to="B7A7"/>
    <trip id="14h276" depart="50465.00" from="B11B10" to="D10D11"/>
    <trip id="14h277" depart="50465.00" from="A5B5" to="G5H5"/>
    <trip id="14h278" depart="50465.00" from="F11F10" to="K5L5"/>
    <trip id="14h279" depart="50465.00" from="J11J10" to="K1L1"/>
    <trip id="14h280" depart="50465.00" from="A5B5" to="B7A7"/>
    <trip id="14h281" depart="50466.00" from="J11J10" to="F6F5"/>
    <trip id="14h282" depart="50466.00" from="L7K7" to="H10H11"/>
    <trip id="14h283" depart="50466.00" from="A1B1" to="F1F0"/>
    <trip id="14h284" depart="50467.00" from="B11B10" to="B1B0"/>
    <trip id="14h285" depart="50467.00" from="D0D1" to="B1B0"/>
    <trip id="14h286" depart="50467.00" from="L3K3" to="K5L5"/>
    <trip id="14h287" depart="50468.00" from="J4J3" to="J1J0"/>
    <trip id="14h288" depart="50468.00" from="E4E3" to="B3A3"/>
    <trip id="14h289" depart="50468.00" from="A5B5" to="K5L5"/>
    <trip id="14h290" depart="50468.00" from="I7I6" to="G3F3"/>
    <trip id="14h291" depart="50468.00" from="A9B9" to="F1F0"/>
    <trip id="14h292" depart="50468.00" from="F11F10" to="B3A3"/>
    <trip id="14h293" depart="50468.00" from="B11B10" to="F1F0"/>
    <trip id="14h294" depart="50468.00" from="G6H6" to="K1L1"/>
    <trip id="14h295" depart="50469.00" from="A5B5" to="J1J0"/>
    <trip id="14h296" depart="50469.00" from="J11J10" to="J1J0"/>
    <trip id="14h297" depart="50469.00" from="F8E8" to="B3A3"/>
    <trip id="14h298" depart="50469.00" from="L7K7" to="J1J0"/>
    <trip id="14h299" depart="50469.00" from="G5G6" to="K9L9"/>
    <trip id="14h300" depart="50469.00" from="D0D1" to="K1L1"/>
    <trip id="14h301" depart="50470.00" from="C5D5" to="D10D11"/>
    <trip id="14h302" depart="50470.00" from="A9B9" to="K9L9"/>
    <trip id="14h303" depart="50470.00" from="A5B5" to="B1B0"/>
    <trip id="14h304" depart="50471.00" from="J11J10" to="K5L5"/>
    <trip id="14h305" depart="50471.00" from="B11B10" to="K1L1"/>
    <trip id="14h306" depart="50471.00" from="D0D1" to="B3A3"/>
    <trip id="14h307" depart="50471.00" from="D0D1" to="F1F0"/>
    <trip id="14h308" depart="50471.00" from="D0D1" to="C9C8"/>
    <trip id="14h309" depart="50472.00" from="F11F10" to="D10D11"/>
    <trip id="14h310" depart="50472.00" from="L7K7" to="K9L9"/>
    <trip id="14h311" depart="50472.00" from="D0D1" to="H10H11"/>
    <trip id="14h312" depart="50473.00" from="A9B9" to="J1J0"/>
    <trip id="14h313" depart="50473.00" from="L3K3" to="K5L5"/>
    <trip id="14h314" depart="50473.00" from="J11J10" to="C3C4"/>
    <trip id="14h315" depart="50473.00" from="D0D1" to="K9L9"/>
    <trip id="14h316" depart="50473.00" from="D0D1" to="D10D11"/>
    <trip id="14h317" depart="50473.00" from="A1B1" to="G1H1"/>
    <trip id="14h318" depart="50474.00" from="L7K7" to="D3D4"/>
    <trip id="14h319" depart="50474.00" from="L7K7" to="K5L5"/>
    <trip id="14h320" depart="50474.00" from="B11B10" to="K5L5"/>
    <trip id="14h321" depart="50474.00" from="I1J1" to="F1F0"/>
    <trip id="14h322" depart="50474.00" from="A1B1" to="B7A7"/>
    <trip id="14h323" depart="50475.00" from="B11B10" to="D10D11"/>
    <trip id="14h324" depart="50475.00" from="D0D1" to="K1L1"/>
    <trip id="14h325" depart="50475.00" from="L3K3" to="H10H11"/>
    <trip id="14h326" depart="50475.00" from="F11F10" to="B7A7"/>
    <trip id="14h327" depart="50475.00" from="D0D1" to="H7H8"/>
    <trip id="14h328" depart="50475.00" from="D0D1" to="J1J0"/>
    <trip id="14h329" depart="50475.00" from="L7K7" to="B1B0"/>
    <trip id="14h330" depart="50476.00" from="D9E9" to="J1J0"/>
    <trip id="14h331" depart="50476.00" from="A1B1" to="K1L1"/>
    <trip id="14h332" depart="50476.00" from="J11J10" to="I7H7"/>
    <trip id="14h333" depart="50477.00" from="A1B1" to="H10H11"/>
    <trip id="14h334" depart="50477.00" from="J11J10" to="F1F0"/>
    <trip id="14h335" depart="50477.00" from="J11J10" to="F1F0"/>
    <trip id="14h336" depart="50477.00" from="A1B1" to="B7A7"/>
    <trip id="14h337" depart="50477.00" from="L7K7" to="G8F8"/>
    <trip id="14h338" depart="50478.00" from="J11J10" to="B7A7"/>
    <trip id="14h339" depart="50478.00" from="J11J10" to="K5L5"/>
    <trip id="14h340" depart="50478.00" from="A5B5" to="D10D11"/>
    <trip id="14h341" depart="50478.00" from="L7K7" to="F7F6"/>
    <trip id="14h342" depart="50479.00" from="G9G10" to="K3J3"/>
    <trip id="14h343" depart="50479.00" from="A1B1" to="J1J0"/>
    <trip id="14h344" depart="50479.00" from="G9G10" to="F1F0"/>
    <trip id="14h345" depart="50479.00" from="A1B1" to="K5L5"/>
    <trip id="14h346" depart="50479.00" from="L7K7" to="C4D4"/>
    <trip id="14h347" depart="50480.00" from="H0H1" to="D10D11"/>
    <trip id="14h348" depart="50480.00" from="H0H1" to="K1L1"/>
    <trip id="14h349" depart="50480.00" from="A1B1" to="K1L1"/>
    <trip id="14h350" depart="50480.00" from="D0D1" to="H10H11"/>
    <trip id="14h351" depart="50481.00" from="J11J10" to="H10H11"/>
    <trip id="14h352" depart="50481.00" from="H0H1" to="B7A7"/>
    <trip id="14h353" depart="50481.00" from="J11J10" to="F9F8"/>
    <trip id="14h354" depart="50481.00" from="F11F10" to="B7A7"/>
    <trip id="14h355" depart="50481.00" from="D0D1" to="K9L9"/>
    <trip id="14h356" depart="50481.00" from="L7K7" to="F4F3"/>
    <trip id="14h357" depart="50481.00" from="L3K3" to="F1F0"/>
    <trip id="14h358" depart="50482.00" from="A5B5" to="J1J0"/>
    <trip id="14h359" depart="50482.00" from="B6B5" to="B1B0"/>
    <trip id="14h360" depart="50483.00" from="A9B9" to="B3A3"/>
    <trip id="14h361" depart="50483.00" from="F11F10" to="D10D11"/>
    <trip id="14h362" depart="50483.00" from="B11B10" to="K9L9"/>
    <trip id="14h363" depart="50484.00" from="L7K7" to="J1J0"/>
    <trip id="14h364" depart="50484.00" from="H0H1" to="D10D11"/>
    <trip id="14h365" depart="50484.00" from="L7K7" to="F1F0"/>
    <trip id="14h366" depart="50485.00" from="A5B5" to="B3A3"/>
    <trip id="14h367" depart="50485.00" from="B11B10" to="J1J0"/>
    <trip id="14h368" depart="50485.00" from="L7K7" to="K5L5"/>
    <trip id="14h369" depart="50485.00" from="H0H1" to="H10H11"/>
    <trip id="14h370" depart="50485.00" from="B11B10" to="H10H11"/>
    <trip id="14h371" depart="50485.00" from="L7K7" to="B3A3"/>
    <trip id="14h372" depart="50486.00" from="A1B1" to="J1J0"/>
    <trip id="14h373" depart="50486.00" from="H0H1" to="F8F7"/>
    <trip id="14h374" depart="50487.00" from="L7K7" to="F1F0"/>
    <trip id="14h375" depart="50487.00" from="A1B1" to="B1B0"/>
    <trip id="14h376" depart="50487.00" from="F10E10" to="B7A7"/>
    <trip id="14h377" depart="50487.00" from="J10I10" to="K10J10"/>
    <trip id="14h378" depart="50487.00" from="C9D9" to="H10H11"/>
    <trip id="14h379" depart="50488.00" from="D7D8" to="C1C2"/>
    <trip id="14h380" depart="50488.00" from="A5B5" to="D10D11"/>
    <trip id="14h381" depart="50488.00" from="H0H1" to="B7A7"/>
    <trip id="14h382" depart="50488.00" from="B11B10" to="H10H11"/>
    <trip id="14h383" depart="50488.00" from="J11J10" to="F8F7"/>
    <trip id="14h384" depart="50488.00" from="A1B1" to="K9L9"/>
    <trip id="14h385" depart="50489.00" from="C1C2" to="B1B0"/>
    <trip id="14h386" depart="50489.00" from="L3K3" to="J6I6"/>
    <trip id="14h387" depart="50490.00" from="D0D1" to="H10H11"/>
    <trip id="14h388" depart="50490.00" from="F11F10" to="B1B0"/>
    <trip id="14h389" depart="50490.00" from="L7K7" to="J1J0"/>
    <trip id="14h390" depart="50490.00" from="L7K7" to="E6E5"/>
    <trip id="14h391" depart="50490.00" from="L7K7" to="K1L1"/>
    <trip id="14h392" depart="50490.00" from="F11F10" to="G10F10"/>
    <trip id="14h393" depart="50490.00" from="A5B5" to="D10D11"/>
    <trip id="14h394" depart="50491.00" from="H0H1" to="B3A3"/>
    <trip id="14h395" depart="50491.00" from="B11B10" to="K5L5"/>
    <trip id="14h396" depart="50492.00" from="J8I8" to="D10D11"/>
    <trip id="14h397" depart="50492.00" from="E3E2" to="K9L9"/>
    <trip id="14h398" depart="50493.00" from="H0H1" to="I1J1"/>
    <trip id="14h399" depart="50493.00" from="H0H1" to="B1B0"/>
    <trip id="14h400" depart="50493.00" from="A1B1" to="D10D11"/>
    <trip id="14h401" depart="50493.00" from="H1H2" to="F1F0"/>
    <trip id="14h402" depart="50494.00" from="A5B5" to="B7A7"/>
    <trip id="14h403" depart="50494.00" from="H0H1" to="H10H11"/>
    <trip id="14h404" depart="50494.00" from="A9B9" to="K8J8"/>
    <trip id="14h405" depart="50494.00" from="C2B2" to="K1L1"/>
    <trip id="14h406" depart="50495.00" from="A9B9" to="H10H11"/>
    <trip id="14h407" depart="50495.00" from="L7K7" to="D10D11"/>
    <trip id="14h408" depart="50495.00" from="A9B9" to="J1J0"/>
    <trip id="14h409" depart="50495.00" from="B7B6" to="K9L9"/>
    <trip id="14h410" depart="50495.00" from="A5B5" to="J1J0"/>
    <trip id="14h411" depart="50495.00" from="L7K7" to="K1L1"/>
    <trip id="14h412" depart="50496.00" from="B11B10" to="J1J0"/>
    <trip id="14h413" depart="50496.00" from="D0D1" to="B7A7"/>
    <trip id="14h414" depart="50496.00" from="F11F10" to="K9L9"/>
    <trip id="14h415" depart="50496.00" from="H0H1" to="H10H11"/>
    <trip id="14h416" depart="50496.00" from="H0H1" to="H10H11"/>
    <trip id="14h417" depart="50496.00" from="D0D1" to="J1J0"/>
    <trip id="14h418" depart="50496.00" from="J11J10" to="B1B0"/>
    <trip id="14h419" depart="50497.00" from="L7K7" to="K5L5"/>
    <trip id="14h420" depart="50497.00" from="L7K7" to="D10D11"/>
    <trip id="14h421" depart="50497.00" from="F3E3" to="H10H11"/>
    <trip id="14h422" depart="50498.00" from="L3K3" to="B5C5"/>
    <trip id="14h423" depart="50498.00" from="F11F10" to="K9L9"/>
    <trip id="14h424" depart="50498.00" from="F11F10" to="B3A3"/>
    <trip id="14h425" depart="50499.00" from="L7K7" to="H10H11"/>
    <trip id="14h426" depart="50499.00" from="A5B5" to="B3A3"/>
    <trip id="14h427" depart="50499.00" from="A9B9" to="K1L1"/>
    <trip id="14h428" depart="50500.00" from="L3K3" to="K5L5"/>
    <trip id="14h429" depart="50500.00" from="H0H1" to="B7A7"/>
    <trip id="14h430" depart="50500.00" from="B11B10" to="B7A7"/>
    <trip id="14h431" depart="50500.00" from="A9B9" to="K1L1"/>
    <trip id="14h432" depart="50500.00" from="J11J10" to="B1B0"/>
    <trip id="14h433" depart="50501.00" from="A5B5" to="D10D11"/>
    <trip id="14h434" depart="50501.00" from="F11F10" to="K5L5"/>
    <trip id="14h435" depart="50501.00" from="A5B5" to="K9L9"/>
    <trip id="14h436" depart="50501.00" from="H0H1" to="B7A7"/>
    <trip id="14h437" depart="50501.00" from="A5B5" to="K1L1"/>
    <trip id="14h438" depart="50501.00" from="F11F10" to="F1F0"/>
    <trip id="14h439" depart="50502.00" from="A9B9" to="K1L1"/>
    <trip id="14h440" depart="50502.00" from="D0D1" to="J1J0"/>
    <trip id="14h441" depart="50502.00" from="F11F10" to="B1B0"/>
    <trip id="14h442" depart="50502.00" from="B11B10" to="H10H11"/>
    <trip id="14h443" depart="50502.00" from="A9B9" to="H10H11"/>
    <trip id="14h444" depart="50503.00" from="F11F10" to="K1L1"/>
    <trip id="14h445" depart="50503.00" from="D4E4" to="K1L1"/>
    <trip id="14h446" depart="50503.00" from="J8I8" to="K1L1"/>
    <trip id="14h447" depart="50503.00" from="B3B2" to="B1B0"/>
    <trip id="14h448" depart="50504.00" from="L7K7" to="B1B0"/>
    <trip id="14h449" depart="50504.00" from="J11J10" to="K1L1"/>
    <trip id="14h450" depart="50504.00" from="L7K7" to="D8E8"/>
    <trip id="14h451" depart="50504.00" from="H0H1" to="J1J0"/>
    <trip id="14h452" depart="50505.00" from="A9B9" to="H10H11"/>
    <trip id="14h453" depart="50505.00" from="A1B1" to="B1B0"/>
    <trip id="14h454" depart="50505.00" from="H0H1" to="H10H11"/>