<?xml version="1.0" encoding="UTF-8"?>
<!-- generated on 2020-12-09 03:18:41.074325 by randomTrips.py v1_7_0+0000-714814baed
  options: -n .\data/grid01-bcn_10.net.xml <doubleminus>prefix=10h <doubleminus>fringe-factor 100 -b 36000 -e 39600 -p0.19223580925935815 <doubleminus>binomial 10 -odata/random/random_h_10-bcn_10.trips.rou.xml <doubleminus>edge-permission=passenger
-->
<routes xmlns:xsi="http://www.w3.org/2001/XMLSchema-instance" xsi:noNamespaceSchemaLocation="http://sumo.dlr.de/xsd/routes_file.xsd">
    <trip id="10h0" depart="36000.00" from="B11B10" to="B7A7"/>
    <trip id="10h1" depart="36000.00" from="D0D1" to="B1B0"/>
    <trip id="10h2" depart="36000.00" from="F11F10" to="B1B0"/>
    <trip id="10h3" depart="36000.00" from="H0H1" to="H10H11"/>
    <trip id="10h4" depart="36000.00" from="G2H2" to="K1L1"/>
    <trip id="10h5" depart="36000.00" from="J2I2" to="J1J0"/>
    <trip id="10h6" depart="36001.00" from="A5B5" to="K9L9"/>
    <trip id="10h7" depart="36001.00" from="A5B5" to="B3A3"/>
    <trip id="10h8" depart="36001.00" from="F11F10" to="K5L5"/>
    <trip id="10h9" depart="36002.00" from="A9B9" to="D10D11"/>
    <trip id="10h10" depart="36002.00" from="A9B9" to="B3A3"/>
    <trip id="10h11" depart="36002.00" from="H0H1" to="D10D11"/>
    <trip id="10h12" depart="36002.00" from="A9B9" to="C10B10"/>
    <trip id="10h13" depart="36003.00" from="J11J10" to="B3A3"/>
    <trip id="10h14" depart="36003.00" from="L7K7" to="J1J0"/>
    <trip id="10h15" depart="36003.00" from="A1B1" to="D10D11"/>
    <trip id="10h16" depart="36003.00" from="A9B9" to="K9L9"/>
    <trip id="10h17" depart="36003.00" from="H0H1" to="E7E6"/>
    <trip id="10h18" depart="36004.00" from="B11B10" to="B7A7"/>
    <trip id="10h19" depart="36004.00" from="F9G9" to="K5L5"/>
    <trip id="10h20" depart="36004.00" from="A9B9" to="K9L9"/>
    <trip id="10h21" depart="36004.00" from="A5B5" to="B1B0"/>
    <trip id="10h22" depart="36004.00" from="H0H1" to="K1L1"/>
    <trip id="10h23" depart="36004.00" from="A1B1" to="D8D9"/>
    <trip id="10h24" depart="36005.00" from="J11J10" to="J1J0"/>
    <trip id="10h25" depart="36005.00" from="H0H1" to="B3A3"/>
    <trip id="10h26" depart="36005.00" from="D0D1" to="K9L9"/>
    <trip id="10h27" depart="36005.00" from="F11F10" to="B7A7"/>
    <trip id="10h28" depart="36006.00" from="H0H1" to="H3H4"/>
    <trip id="10h29" depart="36006.00" from="J11J10" to="H10H11"/>
    <trip id="10h30" depart="36006.00" from="B11B10" to="B1B0"/>
    <trip id="10h31" depart="36006.00" from="A1B1" to="K5L5"/>
    <trip id="10h32" depart="36007.00" from="F11F10" to="B1B0"/>
    <trip id="10h33" depart="36007.00" from="E4E3" to="H10H11"/>
    <trip id="10h34" depart="36007.00" from="L3K3" to="F1F0"/>
    <trip id="10h35" depart="36007.00" from="F11F10" to="J7J6"/>
    <trip id="10h36" depart="36007.00" from="B11B10" to="K9L9"/>
    <trip id="10h37" depart="36007.00" from="F11F10" to="B3A3"/>
    <trip id="10h38" depart="36007.00" from="B11B10" to="H10H11"/>
    <trip id="10h39" depart="36008.00" from="A9B9" to="B1B0"/>
    <trip id="10h40" depart="36008.00" from="L3K3" to="K5L5"/>
    <trip id="10h41" depart="36008.00" from="A9B9" to="J1J0"/>
    <trip id="10h42" depart="36008.00" from="A5B5" to="K9L9"/>
    <trip id="10h43" depart="36008.00" from="J11J10" to="K1L1"/>
    <trip id="10h44" depart="36008.00" from="A5B5" to="F1F0"/>
    <trip id="10h45" depart="36008.00" from="D8D9" to="J7I7"/>
    <trip id="10h46" depart="36009.00" from="D0D1" to="D10D11"/>
    <trip id="10h47" depart="36009.00" from="A9B9" to="F1F0"/>
    <trip id="10h48" depart="36009.00" from="B11B10" to="B7A7"/>
    <trip id="10h49" depart="36009.00" from="L3K3" to="H10H11"/>
    <trip id="10h50" depart="36009.00" from="L7K7" to="K5L5"/>
    <trip id="10h51" depart="36010.00" from="F11F10" to="B7A7"/>
    <trip id="10h52" depart="36010.00" from="A1B1" to="D6D7"/>
    <trip id="10h53" depart="36010.00" from="J11J10" to="F1F0"/>
    <trip id="10h54" depart="36010.00" from="L7K7" to="K9L9"/>
    <trip id="10h55" depart="36010.00" from="B11B10" to="K9L9"/>
    <trip id="10h56" depart="36011.00" from="F9F8" to="G2F2"/>
    <trip id="10h57" depart="36011.00" from="L7K7" to="B1B0"/>
    <trip id="10h58" depart="36011.00" from="G5G6" to="J1J0"/>
    <trip id="10h59" depart="36011.00" from="A5B5" to="K5L5"/>
    <trip id="10h60" depart="36011.00" from="G5G4" to="I10I9"/>
    <trip id="10h61" depart="36011.00" from="F9F8" to="H10H11"/>
    <trip id="10h62" depart="36012.00" from="I8I9" to="B7A7"/>
    <trip id="10h63" depart="36012.00" from="H0H1" to="D10D11"/>
    <trip id="10h64" depart="36012.00" from="J11J10" to="B1B0"/>
    <trip id="10h65" depart="36012.00" from="L7K7" to="K9L9"/>
    <trip id="10h66" depart="36012.00" from="A9B9" to="B9B8"/>
    <trip id="10h67" depart="36012.00" from="A5B5" to="K5L5"/>
    <trip id="10h68" depart="36013.00" from="J8J7" to="D10D11"/>
    <trip id="10h69" depart="36013.00" from="A5B5" to="B3A3"/>
    <trip id="10h70" depart="36013.00" from="G9H9" to="J1J0"/>
    <trip id="10h71" depart="36013.00" from="H0H1" to="B8B7"/>
    <trip id="10h72" depart="36014.00" from="L3K3" to="K5L5"/>
    <trip id="10h73" depart="36014.00" from="D0D1" to="C5D5"/>
    <trip id="10h74" depart="36014.00" from="J11J10" to="J1J0"/>
    <trip id="10h75" depart="36014.00" from="J11J10" to="H10H11"/>
    <trip id="10h76" depart="36014.00" from="A1B1" to="B1B0"/>
    <trip id="10h77" depart="36015.00" from="A5B5" to="D10D11"/>
    <trip id="10h78" depart="36015.00" from="A9B9" to="B3A3"/>
    <trip id="10h79" depart="36015.00" from="H0H1" to="B3A3"/>
    <trip id="10h80" depart="36016.00" from="J11J10" to="D10D11"/>
    <trip id="10h81" depart="36016.00" from="J11J10" to="B3A3"/>
    <trip id="10h82" depart="36017.00" from="J8J7" to="F1F0"/>
    <trip id="10h83" depart="36017.00" from="J11J10" to="B7A7"/>
    <trip id="10h84" depart="36017.00" from="A9B9" to="D10D11"/>
    <trip id="10h85" depart="36017.00" from="H0H1" to="F10F9"/>
    <trip id="10h86" depart="36018.00" from="L7K7" to="B7A7"/>
    <trip id="10h87" depart="36018.00" from="A5B5" to="F1F0"/>
    <trip id="10h88" depart="36018.00" from="H0H1" to="G6F6"/>
    <trip id="10h89" depart="36018.00" from="F4F3" to="B7A7"/>
    <trip id="10h90" depart="36018.00" from="L7K7" to="H10H11"/>
    <trip id="10h91" depart="36019.00" from="A1B1" to="J1J0"/>
    <trip id="10h92" depart="36019.00" from="B11B10" to="K5L5"/>
    <trip id="10h93" depart="36019.00" from="B11B10" to="F1F0"/>
    <trip id="10h94" depart="36019.00" from="B11B10" to="B3A3"/>
    <trip id="10h95" depart="36019.00" from="L7K7" to="J1J0"/>
    <trip id="10h96" depart="36020.00" from="F11F10" to="B10B9"/>
    <trip id="10h97" depart="36020.00" from="D0D1" to="H10H11"/>
    <trip id="10h98" depart="36020.00" from="D0D1" to="B7A7"/>
    <trip id="10h99" depart="36020.00" from="L3K3" to="K1L1"/>
    <trip id="10h100" depart="36020.00" from="A1B1" to="G8F8"/>
    <trip id="10h101" depart="36020.00" from="J9K9" to="K1L1"/>
    <trip id="10h102" depart="36020.00" from="A9B9" to="B1B0"/>
    <trip id="10h103" depart="36021.00" from="E3E2" to="K5L5"/>
    <trip id="10h104" depart="36021.00" from="D0D1" to="I8I7"/>
    <trip id="10h105" depart="36021.00" from="H5H6" to="F6F5"/>
    <trip id="10h106" depart="36021.00" from="H0H1" to="B1B0"/>
    <trip id="10h107" depart="36021.00" from="D0D1" to="B5C5"/>
    <trip id="10h108" depart="36021.00" from="A1B1" to="B7A7"/>
    <trip id="10h109" depart="36022.00" from="J11J10" to="J1J0"/>
    <trip id="10h110" depart="36022.00" from="L3K3" to="H10H11"/>
    <trip id="10h111" depart="36023.00" from="B11B10" to="B7A7"/>
    <trip id="10h112" depart="36023.00" from="A1B1" to="C9D9"/>
    <trip id="10h113" depart="36023.00" from="B11B10" to="H10H11"/>
    <trip id="10h114" depart="36023.00" from="A9B9" to="J1J0"/>
    <trip id="10h115" depart="36023.00" from="D0D1" to="H10H11"/>
    <trip id="10h116" depart="36024.00" from="A9B9" to="F1F0"/>
    <trip id="10h117" depart="36024.00" from="A1B1" to="D10D11"/>
    <trip id="10h118" depart="36025.00" from="J11J10" to="H10H11"/>
    <trip id="10h119" depart="36025.00" from="A9B9" to="F1F0"/>
    <trip id="10h120" depart="36025.00" from="B11B10" to="J1J0"/>
    <trip id="10h121" depart="36025.00" from="A5B5" to="F1F0"/>
    <trip id="10h122" depart="36025.00" from="H0H1" to="B1B0"/>
    <trip id="10h123" depart="36025.00" from="F11F10" to="B1B0"/>
    <trip id="10h124" depart="36025.00" from="D4E4" to="B1B0"/>
    <trip id="10h125" depart="36025.00" from="A9B9" to="D10D11"/>
    <trip id="10h126" depart="36026.00" from="J11J10" to="K5L5"/>
    <trip id="10h127" depart="36026.00" from="A1B1" to="B1B0"/>
    <trip id="10h128" depart="36026.00" from="H0H1" to="K1L1"/>
    <trip id="10h129" depart="36026.00" from="A1B1" to="B3A3"/>
    <trip id="10h130" depart="36027.00" from="H0H1" to="H10H11"/>
    <trip id="10h131" depart="36027.00" from="H7G7" to="K1L1"/>
    <trip id="10h132" depart="36027.00" from="H0H1" to="K1L1"/>
    <trip id="10h133" depart="36027.00" from="K10J10" to="K9L9"/>
    <trip id="10h134" depart="36027.00" from="A1B1" to="D10D11"/>
    <trip id="10h135" depart="36027.00" from="I7I6" to="B1B0"/>
    <trip id="10h136" depart="36028.00" from="J11J10" to="K5L5"/>
    <trip id="10h137" depart="36028.00" from="L7K7" to="K1L1"/>
    <trip id="10h138" depart="36028.00" from="D0D1" to="D10D11"/>
    <trip id="10h139" depart="36028.00" from="B11B10" to="K5L5"/>
    <trip id="10h140" depart="36028.00" from="L7K7" to="J1J0"/>
    <trip id="10h141" depart="36028.00" from="J11J10" to="K9L9"/>
    <trip id="10h142" depart="36029.00" from="J3J2" to="H10H11"/>
    <trip id="10h143" depart="36029.00" from="D0D1" to="J8I8"/>
    <trip id="10h144" depart="36029.00" from="L3K3" to="K5L5"/>
    <trip id="10h145" depart="36029.00" from="L3K3" to="B7A7"/>
    <trip id="10h146" depart="36029.00" from="H0H1" to="D6D7"/>
    <trip id="10h147" depart="36029.00" from="L3K3" to="B7A7"/>
    <trip id="10h148" depart="36029.00" from="J11J10" to="D10D11"/>
    <trip id="10h149" depart="36029.00" from="A1B1" to="K9L9"/>
    <trip id="10h150" depart="36030.00" from="J11J10" to="F3E3"/>
    <trip id="10h151" depart="36030.00" from="J11J10" to="B3A3"/>
    <trip id="10h152" depart="36030.00" from="H1I1" to="D10D11"/>
    <trip id="10h153" depart="36030.00" from="F11F10" to="F1F0"/>
    <trip id="10h154" depart="36030.00" from="H9H10" to="C3B3"/>
    <trip id="10h155" depart="36031.00" from="A5B5" to="B7A7"/>
    <trip id="10h156" depart="36031.00" from="F11F10" to="K1L1"/>
    <trip id="10h157" depart="36031.00" from="A9B9" to="F1F0"/>
    <trip id="10h158" depart="36031.00" from="A5B5" to="B7A7"/>
    <trip id="10h159" depart="36031.00" from="A9B9" to="B1B0"/>
    <trip id="10h160" depart="36031.00" from="L7K7" to="H10H11"/>
    <trip id="10h161" depart="36032.00" from="L3K3" to="F4F3"/>
    <trip id="10h162" depart="36032.00" from="D0D1" to="B7A7"/>
    <trip id="10h163" depart="36032.00" from="L7K7" to="F1F0"/>
    <trip id="10h164" depart="36032.00" from="A1B1" to="I7I6"/>
    <trip id="10h165" depart="36032.00" from="A5B5" to="H10H11"/>
    <trip id="10h166" depart="36032.00" from="L7K7" to="B3A3"/>
    <trip id="10h167" depart="36033.00" from="F11F10" to="F1F0"/>
    <trip id="10h168" depart="36033.00" from="L3K3" to="K9L9"/>
    <trip id="10h169" depart="36033.00" from="H0H1" to="H4H5"/>
    <trip id="10h170" depart="36033.00" from="A9B9" to="J1J0"/>
    <trip id="10h171" depart="36033.00" from="A9B9" to="B1B0"/>
    <trip id="10h172" depart="36034.00" from="D0D1" to="H10H11"/>
    <trip id="10h173" depart="36034.00" from="A9B9" to="J1J0"/>
    <trip id="10h174" depart="36034.00" from="H0H1" to="K9L9"/>
    <trip id="10h175" depart="36034.00" from="F11F10" to="J1J0"/>
    <trip id="10h176" depart="36035.00" from="A5B5" to="D10D11"/>
    <trip id="10h177" depart="36035.00" from="A5B5" to="J1J0"/>
    <trip id="10h178" depart="36035.00" from="F11F10" to="B1B0"/>
    <trip id="10h179" depart="36035.00" from="D0D1" to="D10D11"/>
    <trip id="10h180" depart="36035.00" from="A5B5" to="K9L9"/>
    <trip id="10h181" depart="36036.00" from="A1B1" to="K1L1"/>
    <trip id="10h182" depart="36036.00" from="H0H1" to="K9L9"/>
    <trip id="10h183" depart="36036.00" from="G10F10" to="J1J0"/>
    <trip id="10h184" depart="36036.00" from="A5B5" to="D10D11"/>
    <trip id="10h185" depart="36036.00" from="H0H1" to="K5L5"/>
    <trip id="10h186" depart="36037.00" from="H3G3" to="D10D11"/>
    <trip id="10h187" depart="36037.00" from="B11B10" to="D10D11"/>
    <trip id="10h188" depart="36037.00" from="F11F10" to="K9L9"/>
    <trip id="10h189" depart="36037.00" from="A9B9" to="D10D11"/>
    <trip id="10h190" depart="36038.00" from="F11F10" to="K9L9"/>
    <trip id="10h191" depart="36038.00" from="H6H7" to="B3A3"/>
    <trip id="10h192" depart="36038.00" from="A5B5" to="H10H11"/>
    <trip id="10h193" depart="36038.00" from="L7K7" to="K8J8"/>
    <trip id="10h194" depart="36039.00" from="A5B5" to="K5L5"/>
    <trip id="10h195" depart="36039.00" from="I8I9" to="G5G4"/>
    <trip id="10h196" depart="36039.00" from="L3K3" to="K9L9"/>
    <trip id="10h197" depart="36039.00" from="F11F10" to="D9D10"/>
    <trip id="10h198" depart="36039.00" from="L3K3" to="K5L5"/>
    <trip id="10h199" depart="36039.00" from="J11J10" to="F1F0"/>
    <trip id="10h200" depart="36039.00" from="K1K2" to="C8D8"/>
    <trip id="10h201" depart="36039.00" from="G1G2" to="K9L9"/>
    <trip id="10h202" depart="36040.00" from="A5B5" to="H10H11"/>
    <trip id="10h203" depart="36040.00" from="F11F10" to="H10H11"/>
    <trip id="10h204" depart="36040.00" from="B11B10" to="B7A7"/>
    <trip id="10h205" depart="36040.00" from="J11J10" to="B1B0"/>
    <trip id="10h206" depart="36040.00" from="H0H1" to="K1L1"/>
    <trip id="10h207" depart="36041.00" from="A1B1" to="G1H1"/>
    <trip id="10h208" depart="36041.00" from="F11F10" to="F1F0"/>
    <trip id="10h209" depart="36041.00" from="H0H1" to="B3A3"/>
    <trip id="10h210" depart="36041.00" from="L7K7" to="D10D11"/>
    <trip id="10h211" depart="36042.00" from="B11B10" to="J1J0"/>
    <trip id="10h212" depart="36042.00" from="A1B1" to="I8I9"/>
    <trip id="10h213" depart="36043.00" from="A5B5" to="J10J9"/>
    <trip id="10h214" depart="36043.00" from="H3H4" to="K5L5"/>
    <trip id="10h215" depart="36043.00" from="J11J10" to="D10D11"/>
    <trip id="10h216" depart="36043.00" from="A5B5" to="H10H11"/>
    <trip id="10h217" depart="36043.00" from="A1B1" to="K5L5"/>
    <trip id="10h218" depart="36044.00" from="L3K3" to="B3A3"/>
    <trip id="10h219" depart="36044.00" from="A9B9" to="B7A7"/>
    <trip id="10h220" depart="36044.00" from="J1K1" to="K5L5"/>
    <trip id="10h221" depart="36044.00" from="D0D1" to="D10D11"/>
    <trip id="10h222" depart="36044.00" from="A9B9" to="K5L5"/>
    <trip id="10h223" depart="36044.00" from="D0D1" to="F1F0"/>
    <trip id="10h224" depart="36044.00" from="F2E2" to="H10H11"/>
    <trip id="10h225" depart="36045.00" from="L7K7" to="J1J0"/>
    <trip id="10h226" depart="36045.00" from="F11F10" to="J1J0"/>
    <trip id="10h227" depart="36045.00" from="H0H1" to="F8E8"/>
    <trip id="10h228" depart="36045.00" from="J11J10" to="H2H3"/>
    <trip id="10h229" depart="36045.00" from="H0H1" to="I2H2"/>
    <trip id="10h230" depart="36046.00" from="D0D1" to="H10H11"/>
    <trip id="10h231" depart="36046.00" from="B11B10" to="K1L1"/>
    <trip id="10h232" depart="36046.00" from="A5B5" to="H10H11"/>
    <trip id="10h233" depart="36047.00" from="K5K6" to="F1F0"/>
    <trip id="10h234" depart="36047.00" from="A5B5" to="K9L9"/>
    <trip id="10h235" depart="36047.00" from="L7K7" to="K5L5"/>
    <trip id="10h236" depart="36048.00" from="J11J10" to="B1B0"/>
    <trip id="10h237" depart="36048.00" from="H0H1" to="J1J0"/>
    <trip id="10h238" depart="36048.00" from="A9B9" to="B1B0"/>
    <trip id="10h239" depart="36049.00" from="A1B1" to="K5K4"/>
    <trip id="10h240" depart="36049.00" from="D0D1" to="B3A3"/>
    <trip id="10h241" depart="36049.00" from="F11F10" to="B3A3"/>
    <trip id="10h242" depart="36049.00" from="D0D1" to="J1J0"/>
    <trip id="10h243" depart="36050.00" from="J11J10" to="B3A3"/>
    <trip id="10h244" depart="36050.00" from="A5B5" to="F3F2"/>
    <trip id="10h245" depart="36050.00" from="L7K7" to="B1B0"/>
    <trip id="10h246" depart="36050.00" from="D0D1" to="K9L9"/>
    <trip id="10h247" depart="36050.00" from="H0H1" to="H10H11"/>
    <trip id="10h248" depart="36050.00" from="D0D1" to="B7A7"/>
    <trip id="10h249" depart="36050.00" from="L3K3" to="F1F0"/>
    <trip id="10h250" depart="36051.00" from="J11J10" to="B7A7"/>
    <trip id="10h251" depart="36051.00" from="F11F10" to="B1B0"/>
    <trip id="10h252" depart="36051.00" from="A9B9" to="K5L5"/>
    <trip id="10h253" depart="36051.00" from="A5B5" to="K5L5"/>
    <trip id="10h254" depart="36051.00" from="L3K3" to="B3A3"/>
    <trip id="10h255" depart="36051.00" from="A9B9" to="B4B3"/>
    <trip id="10h256" depart="36052.00" from="A1B1" to="K1L1"/>
    <trip id="10h257" depart="36052.00" from="B11B10" to="B4B3"/>
    <trip id="10h258" depart="36052.00" from="J11J10" to="H10H11"/>
    <trip id="10h259" depart="36052.00" from="J11J10" to="G7F7"/>
    <trip id="10h260" depart="36052.00" from="F11F10" to="K9L9"/>
    <trip id="10h261" depart="36052.00" from="J11J10" to="K5L5"/>
    <trip id="10h262" depart="36052.00" from="L7K7" to="B1B0"/>
    <trip id="10h263" depart="36053.00" from="D0D1" to="J1J0"/>
    <trip id="10h264" depart="36053.00" from="L3K3" to="B1B0"/>
    <trip id="10h265" depart="36053.00" from="H0H1" to="B1B0"/>
    <trip id="10h266" depart="36053.00" from="H0H1" to="H10H11"/>
    <trip id="10h267" depart="36053.00" from="L7K7" to="H10H11"/>
    <trip id="10h268" depart="36053.00" from="H0H1" to="B3A3"/>
    <trip id="10h269" depart="36054.00" from="D0D1" to="B7A7"/>
    <trip id="10h270" depart="36054.00" from="D0D1" to="F1F0"/>
    <trip id="10h271" depart="36054.00" from="D0D1" to="J1J0"/>
    <trip id="10h272" depart="36054.00" from="A5B5" to="K9L9"/>
    <trip id="10h273" depart="36054.00" from="L3K3" to="B3A3"/>
    <trip id="10h274" depart="36054.00" from="J11J10" to="K1L1"/>
    <trip id="10h275" depart="36055.00" from="A5B5" to="D10D11"/>
    <trip id="10h276" depart="36055.00" from="F5G5" to="B7A7"/>
    <trip id="10h277" depart="36055.00" from="A5B5" to="K5L5"/>
    <trip id="10h278" depart="36056.00" from="J11J10" to="H10H11"/>
    <trip id="10h279" depart="36056.00" from="L7K7" to="K5L5"/>
    <trip id="10h280" depart="36056.00" from="A9B9" to="J1J0"/>
    <trip id="10h281" depart="36056.00" from="B11B10" to="B1B0"/>
    <trip id="10h282" depart="36057.00" from="A5B5" to="J10J9"/>
    <trip id="10h283" depart="36057.00" from="J11J10" to="B7A7"/>
    <trip id="10h284" depart="36057.00" from="B11B10" to="D10D11"/>
    <trip id="10h285" depart="36057.00" from="A1B1" to="B3A3"/>
    <trip id="10h286" depart="36058.00" from="H0H1" to="F1G1"/>
    <trip id="10h287" depart="36058.00" from="B11B10" to="K1L1"/>
    <trip id="10h288" depart="36058.00" from="D0D1" to="C8D8"/>
    <trip id="10h289" depart="36058.00" from="H0H1" to="B1B0"/>
    <trip id="10h290" depart="36058.00" from="G7G6" to="B1B0"/>
    <trip id="10h291" depart="36058.00" from="A9B9" to="B3A3"/>
    <trip id="10h292" depart="36058.00" from="B11B10" to="B1B0"/>
    <trip id="10h293" depart="36059.00" from="D0D1" to="J1J0"/>
    <trip id="10h294" depart="36059.00" from="L3K3" to="K1L1"/>
    <trip id="10h295" depart="36059.00" from="L3K3" to="B1B0"/>
    <trip id="10h296" depart="36059.00" from="L7K7" to="K5L5"/>
    <trip id="10h297" depart="36059.00" from="A5B5" to="B1B0"/>
    <trip id="10h298" depart="36059.00" from="J11J10" to="H9I9"/>
    <trip id="10h299" depart="36060.00" from="L3K3" to="B7A7"/>
    <trip id="10h300" depart="36060.00" from="B11B10" to="D10D11"/>
    <trip id="10h301" depart="36060.00" from="A5B5" to="G5H5"/>
    <trip id="10h302" depart="36060.00" from="F11F10" to="K5L5"/>
    <trip id="10h303" depart="36060.00" from="J11J10" to="K1L1"/>
    <trip id="10h304" depart="36060.00" from="A5B5" to="B7A7"/>
    <trip id="10h305" depart="36061.00" from="J11J10" to="F6F5"/>
    <trip id="10h306" depart="36061.00" from="L7K7" to="H10H11"/>
    <trip id="10h307" depart="36062.00" from="A1B1" to="F1F0"/>
    <trip id="10h308" depart="36062.00" from="B11B10" to="B1B0"/>
    <trip id="10h309" depart="36062.00" from="B11B10" to="F1F0"/>
    <trip id="10h310" depart="36062.00" from="L3K3" to="B1B0"/>
    <trip id="10h311" depart="36062.00" from="D5D6" to="H10H11"/>
    <trip id="10h312" depart="36063.00" from="J4J3" to="J1J0"/>
    <trip id="10h313" depart="36063.00" from="E4E3" to="B3A3"/>
    <trip id="10h314" depart="36063.00" from="A5B5" to="K5L5"/>
    <trip id="10h315" depart="36063.00" from="I7I6" to="G3F3"/>
    <trip id="10h316" depart="36063.00" from="A9B9" to="F1F0"/>
    <trip id="10h317" depart="36063.00" from="F11F10" to="B3A3"/>
    <trip id="10h318" depart="36063.00" from="B11B10" to="F1F0"/>
    <trip id="10h319" depart="36063.00" from="G6H6" to="K1L1"/>
    <trip id="10h320" depart="36064.00" from="A5B5" to="J1J0"/>
    <trip id="10h321" depart="36064.00" from="J11J10" to="J1J0"/>
    <trip id="10h322" depart="36064.00" from="F8E8" to="B3A3"/>
    <trip id="10h323" depart="36064.00" from="L7K7" to="J1J0"/>
    <trip id="10h324" depart="36064.00" from="G5G6" to="K9L9"/>
    <trip id="10h325" depart="36064.00" from="D0D1" to="K1L1"/>
    <trip id="10h326" depart="36065.00" from="C5D5" to="D10D11"/>
    <trip id="10h327" depart="36065.00" from="A9B9" to="K9L9"/>
    <trip id="10h328" depart="36065.00" from="A9B9" to="B3A3"/>
    <trip id="10h329" depart="36065.00" from="L3K3" to="B3A3"/>
    <trip id="10h330" depart="36066.00" from="B11B10" to="K1L1"/>
    <trip id="10h331" depart="36066.00" from="D0D1" to="B3A3"/>
    <trip id="10h332" depart="36066.00" from="D0D1" to="F1F0"/>
    <trip id="10h333" depart="36066.00" from="D0D1" to="C9C8"/>
    <trip id="10h334" depart="36067.00" from="F11F10" to="D10D11"/>
    <trip id="10h335" depart="36067.00" from="L3K3" to="D10D11"/>
    <trip id="10h336" depart="36067.00" from="B11B10" to="D8D9"/>
    <trip id="10h337" depart="36068.00" from="A9B9" to="J1J0"/>
    <trip id="10h338" depart="36068.00" from="L3K3" to="K5L5"/>
    <trip id="10h339" depart="36068.00" from="J11J10" to="C3C4"/>
    <trip id="10h340" depart="36068.00" from="D0D1" to="K9L9"/>
    <trip id="10h341" depart="36068.00" from="D0D1" to="D10D11"/>
    <trip id="10h342" depart="36068.00" from="A1B1" to="G1H1"/>
    <trip id="10h343" depart="36069.00" from="L7K7" to="D3D4"/>
    <trip id="10h344" depart="36069.00" from="L7K7" to="K5L5"/>
    <trip id="10h345" depart="36069.00" from="B11B10" to="K5L5"/>
    <trip id="10h346" depart="36069.00" from="I1J1" to="F1F0"/>
    <trip id="10h347" depart="36069.00" from="A1B1" to="B7A7"/>
    <trip id="10h348" depart="36070.00" from="B11B10" to="D10D11"/>
    <trip id="10h349" depart="36070.00" from="D0D1" to="K1L1"/>
    <trip id="10h350" depart="36070.00" from="A5B5" to="K5L5"/>
    <trip id="10h351" depart="36070.00" from="F11F10" to="B7A7"/>
    <trip id="10h352" depart="36070.00" from="D0D1" to="H7H8"/>
    <trip id="10h353" depart="36070.00" from="D0D1" to="J1J0"/>
    <trip id="10h354" depart="36070.00" from="L7K7" to="B1B0"/>
    <trip id="10h355" depart="36071.00" from="L7K7" to="H10H11"/>
    <trip id="10h356" depart="36071.00" from="D9E9" to="J1J0"/>
    <trip id="10h357" depart="36071.00" from="A1B1" to="K1L1"/>
    <trip id="10h358" depart="36071.00" from="J11J10" to="I7H7"/>
    <trip id="10h359" depart="36071.00" from="A1B1" to="H10H11"/>
    <trip id="10h360" depart="36072.00" from="J11J10" to="F1F0"/>
    <trip id="10h361" depart="36072.00" from="J11J10" to="F1F0"/>
    <trip id="10h362" depart="36072.00" from="A1B1" to="B7A7"/>
    <trip id="10h363" depart="36072.00" from="L7K7" to="G8F8"/>
    <trip id="10h364" depart="36072.00" from="J11J10" to="B7A7"/>
    <trip id="10h365" depart="36073.00" from="J11J10" to="K5L5"/>
    <trip id="10h366" depart="36073.00" from="A5B5" to="D10D11"/>
    <trip id="10h367" depart="36073.00" from="L7K7" to="F7F6"/>
    <trip id="10h368" depart="36073.00" from="L7K7" to="G9H9"/>
    <trip id="10h369" depart="36073.00" from="G9G10" to="K3J3"/>
    <trip id="10h370" depart="36074.00" from="A1B1" to="J1J0"/>
    <trip id="10h371" depart="36074.00" from="G9G10" to="F1F0"/>
    <trip id="10h372" depart="36074.00" from="A1B1" to="K5L5"/>
    <trip id="10h373" depart="36074.00" from="L7K7" to="C4D4"/>
    <trip id="10h374" depart="36074.00" from="H0H1" to="D10D11"/>
    <trip id="10h375" depart="36075.00" from="H0H1" to="K1L1"/>
    <trip id="10h376" depart="36075.00" from="A1B1" to="K1L1"/>
    <trip id="10h377" depart="36075.00" from="D0D1" to="H10H11"/>
    <trip id="10h378" depart="36075.00" from="J11J10" to="H10H11"/>
    <trip id="10h379" depart="36076.00" from="H0H1" to="B7A7"/>
    <trip id="10h380" depart="36076.00" from="J11J10" to="F9F8"/>
    <trip id="10h381" depart="36076.00" from="F11F10" to="B7A7"/>
    <trip id="10h382" depart="36076.00" from="D0D1" to="K9L9"/>
    <trip id="10h383" depart="36076.00" from="L7K7" to="F4F3"/>
    <trip id="10h384" depart="36076.00" from="L3K3" to="F1F0"/>
    <trip id="10h385" depart="36076.00" from="A5B5" to="J1J0"/>
    <trip id="10h386" depart="36076.00" from="B6B5" to="B1B0"/>
    <trip id="10h387" depart="36077.00" from="A5B5" to="B7A7"/>
    <trip id="10h388" depart="36077.00" from="J11J10" to="B1B0"/>
    <trip id="10h389" depart="36078.00" from="J11J10" to="H10H11"/>
    <trip id="10h390" depart="36078.00" from="B11B10" to="K9L9"/>
    <trip id="10h391" depart="36078.00" from="L7K7" to="J1J0"/>
    <trip id="10h392" depart="36078.00" from="H0H1" to="D10D11"/>
    <trip id="10h393" depart="36079.00" from="L7K7" to="F1F0"/>
    <trip id="10h394" depart="36079.00" from="A5B5" to="B3A3"/>
    <trip id="10h395" depart="36079.00" from="B11B10" to="J1J0"/>
    <trip id="10h396" depart="36079.00" from="L7K7" to="K5L5"/>
    <trip id="10h397" depart="36079.00" from="H0H1" to="H10H11"/>
    <trip id="10h398" depart="36079.00" from="B11B10" to="H10H11"/>
    <trip id="10h399" depart="36080.00" from="A5B5" to="K9L9"/>
    <trip id="10h400" depart="36080.00" from="H0H1" to="J2I2"/>
    <trip id="10h401" depart="36080.00" from="A1B1" to="J1J0"/>
    <trip id="10h402" depart="36081.00" from="H0H1" to="F8F7"/>
    <trip id="10h403" depart="36081.00" from="L7K7" to="F1F0"/>
    <trip id="10h404" depart="36081.00" from="A1B1" to="B1B0"/>
    <trip id="10h405" depart="36081.00" from="F10E10" to="B7A7"/>
    <trip id="10h406" depart="36081.00" from="J10I10" to="K10J10"/>
    <trip id="10h407" depart="36082.00" from="C9D9" to="H10H11"/>
    <trip id="10h408" depart="36082.00" from="D7D8" to="C1C2"/>
    <trip id="10h409" depart="36082.00" from="A5B5" to="D10D11"/>
    <trip id="10h410" depart="36082.00" from="H0H1" to="B7A7"/>
    <trip id="10h411" depart="36082.00" from="B11B10" to="H10H11"/>
    <trip id="10h412" depart="36082.00" from="J11J10" to="F8F7"/>
    <trip id="10h413" depart="36082.00" from="F11F10" to="D10D11"/>
    <trip id="10h414" depart="36082.00" from="L7K7" to="G3G2"/>
    <trip id="10h415" depart="36083.00" from="C1C2" to="B1B0"/>
    <trip id="10h416" depart="36083.00" from="L3K3" to="J1J0"/>
    <trip id="10h417" depart="36083.00" from="F11F10" to="K5L5"/>
    <trip id="10h418" depart="36083.00" from="L3K3" to="J6I6"/>
    <trip id="10h419" depart="36083.00" from="D0D1" to="H10H11"/>
    <trip id="10h420" depart="36083.00" from="F11F10" to="B1B0"/>
    <trip id="10h421" depart="36083.00" from="J11J10" to="C7B7"/>
    <trip id="10h422" depart="36084.00" from="L7K7" to="E6E5"/>
    <trip id="10h423" depart="36084.00" from="L7K7" to="K1L1"/>
    <trip id="10h424" depart="36084.00" from="F11F10" to="G10F10"/>
    <trip id="10h425" depart="36084.00" from="A5B5" to="D10D11"/>
    <trip id="10h426" depart="36084.00" from="D1D2" to="H1I1"/>
    <trip id="10h427" depart="36084.00" from="B11B10" to="H6H7"/>
    <trip id="10h428" depart="36084.00" from="L7K7" to="K1L1"/>
    <trip id="10h429" depart="36084.00" from="B11B10" to="K5L5"/>
    <trip id="10h430" depart="36085.00" from="J8I8" to="D10D11"/>
    <trip id="10h431" depart="36085.00" from="E3E2" to="K9L9"/>
    <trip id="10h432" depart="36086.00" from="H0H1" to="I1J1"/>
    <trip id="10h433" depart="36086.00" from="H0H1" to="B1B0"/>
    <trip id="10h434" depart="36086.00" from="A1B1" to="D10D11"/>
    <trip id="10h435" depart="36087.00" from="H1H2" to="F1F0"/>
    <trip id="10h436" depart="36087.00" from="A5B5" to="B7A7"/>
    <trip id="10h437" depart="36087.00" from="H0H1" to="H10H11"/>
    <trip id="10h438" depart="36087.00" from="A9B9" to="K8J8"/>
    <trip id="10h439" depart="36087.00" from="C2B2" to="K1L1"/>
    <trip id="10h440" depart="36088.00" from="A9B9" to="H10H11"/>
    <trip id="10h441" depart="36088.00" from="L7K7" to="D10D11"/>
    <trip id="10h442" depart="36088.00" from="A9B9" to="J1J0"/>
    <trip id="10h443" depart="36088.00" from="B7B6" to="K9L9"/>
    <trip id="10h444" depart="36088.00" from="A5B5" to="J1J0"/>
    <trip id="10h445" depart="36088.00" from="L7K7" to="K1L1"/>
    <trip id="10h446" depart="36089.00" from="B11B10" to="J1J0"/>
    <trip id="10h447" depart="36089.00" from="D0D1" to="B7A7"/>
    <trip id="10h448" depart="36089.00" from="A9B9" to="H10H11"/>
    <trip id="10h449" depart="36089.00" from="H0H1" to="H10H11"/>
    <trip id="10h450" depart="36089.00" from="H0H1" to="H10H11"/>
    <trip id="10h451" depart="36090.00" from="D0D1" to="J1J0"/>
    <trip id="10h452" depart="36090.00" from="J11J10" to="B1B0"/>
    <trip id="10h453" depart="36090.00" from="L7K7" to="K5L5"/>
    <trip id="10h454" depart="36090.00" from="A9B9" to="K9L9"/>