<?xml version="1.0" encoding="UTF-8"?>
<!-- generated on 2020-12-09 03:18:31.224951 by randomTrips.py v1_7_0+0000-714814baed
  options: -n .\data/grid01-bcn_10.net.xml <doubleminus>prefix=1h <doubleminus>fringe-factor 100 -b 3600 -e 7200 -p5.084745762711864 <doubleminus>binomial 10 -odata/random/random_h_1-bcn_10.trips.rou.xml <doubleminus>edge-permission=passenger
-->
<routes xmlns:xsi="http://www.w3.org/2001/XMLSchema-instance" xsi:noNamespaceSchemaLocation="http://sumo.dlr.de/xsd/routes_file.xsd">
    <trip id="1h0" depart="3601.00" from="J2I2" to="J1J0"/>
    <trip id="1h1" depart="3609.00" from="J11J10" to="J1J0"/>
    <trip id="1h2" depart="3612.00" from="B11B10" to="B1B0"/>
    <trip id="1h3" depart="3626.00" from="J8J7" to="D10D11"/>
    <trip id="1h4" depart="3628.00" from="J11J10" to="J1J0"/>
    <trip id="1h5" depart="3628.00" from="A1B1" to="K5L5"/>
    <trip id="1h6" depart="3635.00" from="L7K7" to="H10H11"/>
    <trip id="1h7" depart="3638.00" from="B11B10" to="F1F0"/>
    <trip id="1h8" depart="3641.00" from="J11J10" to="K1L1"/>
    <trip id="1h9" depart="3646.00" from="C10B10" to="K1L1"/>
    <trip id="1h10" depart="3649.00" from="F11F10" to="K9L9"/>
    <trip id="1h11" depart="3657.00" from="L7K7" to="B1B0"/>
    <trip id="1h12" depart="3661.00" from="F11F10" to="C4D4"/>
    <trip id="1h13" depart="3665.00" from="D0D1" to="H10H11"/>
    <trip id="1h14" depart="3685.00" from="J1K1" to="K5L5"/>
    <trip id="1h15" depart="3692.00" from="F11F10" to="F1F0"/>
    <trip id="1h16" depart="3699.00" from="L3K3" to="B3A3"/>
    <trip id="1h17" depart="3700.00" from="J11J10" to="B7A7"/>
    <trip id="1h18" depart="3709.00" from="L3K3" to="H10H11"/>
    <trip id="1h19" depart="3713.00" from="B11B10" to="B7A7"/>
    <trip id="1h20" depart="3713.00" from="J11J10" to="B5B4"/>
    <trip id="1h21" depart="3714.00" from="L7K7" to="K5L5"/>
    <trip id="1h22" depart="3734.00" from="A1B1" to="B7A7"/>
    <trip id="1h23" depart="3736.00" from="F11F10" to="B7A7"/>
    <trip id="1h24" depart="3738.00" from="J11J10" to="D10D11"/>
    <trip id="1h25" depart="3768.00" from="B11B10" to="B3A3"/>
    <trip id="1h26" depart="3775.00" from="F11F10" to="K9L9"/>
    <trip id="1h27" depart="3778.00" from="F11F10" to="B3A3"/>
    <trip id="1h28" depart="3781.00" from="H0H1" to="J1J0"/>
    <trip id="1h29" depart="3790.00" from="A1B1" to="D10D11"/>
    <trip id="1h30" depart="3791.00" from="A9B9" to="B3A3"/>
    <trip id="1h31" depart="3798.00" from="L7K7" to="K9L9"/>
    <trip id="1h32" depart="3804.00" from="F11F10" to="D2D3"/>
    <trip id="1h33" depart="3805.00" from="F11F10" to="B1B0"/>
    <trip id="1h34" depart="3805.00" from="J6J5" to="J1J0"/>
    <trip id="1h35" depart="3808.00" from="A9B9" to="F9G9"/>
    <trip id="1h36" depart="3814.00" from="B11B10" to="D10D11"/>
    <trip id="1h37" depart="3825.00" from="B11B10" to="G5H5"/>
    <trip id="1h38" depart="3835.00" from="A5B5" to="K1L1"/>
    <trip id="1h39" depart="3843.00" from="J11J10" to="J9J8"/>
    <trip id="1h40" depart="3846.00" from="L7K7" to="B7A7"/>
    <trip id="1h41" depart="3848.00" from="E4E5" to="B3A3"/>
    <trip id="1h42" depart="3848.00" from="H4I4" to="K1L1"/>
    <trip id="1h43" depart="3850.00" from="H0H1" to="F1F0"/>
    <trip id="1h44" depart="3854.00" from="A1B1" to="B7A7"/>
    <trip id="1h45" depart="3864.00" from="A9B9" to="H10H11"/>
    <trip id="1h46" depart="3865.00" from="D0D1" to="B7A7"/>
    <trip id="1h47" depart="3866.00" from="H0H1" to="K5L5"/>
    <trip id="1h48" depart="3872.00" from="L3K3" to="K9L9"/>
    <trip id="1h49" depart="3882.00" from="L7K7" to="B7A7"/>
    <trip id="1h50" depart="3889.00" from="D0D1" to="J9J8"/>
    <trip id="1h51" depart="3910.00" from="L3K3" to="J1J0"/>
    <trip id="1h52" depart="3910.00" from="A9B9" to="K1L1"/>
    <trip id="1h53" depart="3920.00" from="B11B10" to="K1L1"/>
    <trip id="1h54" depart="3922.00" from="B11B10" to="K5L5"/>
    <trip id="1h55" depart="3929.00" from="H0H1" to="K5L5"/>
    <trip id="1h56" depart="3940.00" from="A5B5" to="H10H11"/>
    <trip id="1h57" depart="3954.00" from="A9B9" to="I2H2"/>
    <trip id="1h58" depart="3959.00" from="H0H1" to="F1F0"/>
    <trip id="1h59" depart="3962.00" from="A1B1" to="J1J0"/>
    <trip id="1h60" depart="3964.00" from="H0H1" to="H10H11"/>
    <trip id="1h61" depart="3967.00" from="G6F6" to="H10H11"/>
    <trip id="1h62" depart="3972.00" from="A9B9" to="B7A7"/>
    <trip id="1h63" depart="3974.00" from="F11F10" to="B1B0"/>
    <trip id="1h64" depart="3983.00" from="J11J10" to="J1J0"/>
    <trip id="1h65" depart="3990.00" from="H0H1" to="J1J0"/>
    <trip id="1h66" depart="3993.00" from="A5B5" to="B3A3"/>
    <trip id="1h67" depart="3996.00" from="A5B5" to="K9L9"/>
    <trip id="1h68" depart="4001.00" from="L3K3" to="B7A7"/>
    <trip id="1h69" depart="4007.00" from="A9B9" to="H10H11"/>
    <trip id="1h70" depart="4021.00" from="J7J6" to="K5L5"/>
    <trip id="1h71" depart="4021.00" from="L7K7" to="K9L9"/>
    <trip id="1h72" depart="4021.00" from="D0D1" to="D10D11"/>
    <trip id="1h73" depart="4021.00" from="D0D1" to="F1F0"/>
    <trip id="1h74" depart="4024.00" from="A1B1" to="H10H11"/>
    <trip id="1h75" depart="4030.00" from="A1B1" to="K1L1"/>
    <trip id="1h76" depart="4034.00" from="H0H1" to="D6D7"/>
    <trip id="1h77" depart="4034.00" from="L3K3" to="K1L1"/>
    <trip id="1h78" depart="4048.00" from="J11J10" to="D8E8"/>
    <trip id="1h79" depart="4054.00" from="H3H4" to="B3A3"/>
    <trip id="1h80" depart="4056.00" from="F8F7" to="J1J0"/>
    <trip id="1h81" depart="4056.00" from="D0D1" to="C3B3"/>
    <trip id="1h82" depart="4057.00" from="L3K3" to="J1J0"/>
    <trip id="1h83" depart="4067.00" from="B11B10" to="F1F0"/>
    <trip id="1h84" depart="4076.00" from="L3K3" to="B7A7"/>
    <trip id="1h85" depart="4083.00" from="A1B1" to="I5J5"/>
    <trip id="1h86" depart="4084.00" from="A9B9" to="C8B8"/>
    <trip id="1h87" depart="4085.00" from="H0H1" to="D10D11"/>
    <trip id="1h88" depart="4092.00" from="L7K7" to="J1J0"/>
    <trip id="1h89" depart="4094.00" from="H0H1" to="G7G6"/>
    <trip id="1h90" depart="4104.00" from="A5B5" to="B3A3"/>
    <trip id="1h91" depart="4106.00" from="L7K7" to="F1F0"/>
    <trip id="1h92" depart="4109.00" from="J11J10" to="F2E2"/>
    <trip id="1h93" depart="4116.00" from="A5B5" to="B4B3"/>
    <trip id="1h94" depart="4120.00" from="L7K7" to="F1F0"/>
    <trip id="1h95" depart="4123.00" from="A5B5" to="B3A3"/>
    <trip id="1h96" depart="4130.00" from="L7K7" to="K1L1"/>
    <trip id="1h97" depart="4140.00" from="F11F10" to="B1B0"/>
    <trip id="1h98" depart="4142.00" from="A9B9" to="B3A3"/>
    <trip id="1h99" depart="4151.00" from="L7K7" to="B1B0"/>
    <trip id="1h100" depart="4152.00" from="J11J10" to="K9L9"/>
    <trip id="1h101" depart="4167.00" from="J11J10" to="K9L9"/>
    <trip id="1h102" depart="4176.00" from="B11B10" to="K9L9"/>
    <trip id="1h103" depart="4181.00" from="F11F10" to="D2D3"/>
    <trip id="1h104" depart="4188.00" from="A9B9" to="B7A7"/>
    <trip id="1h105" depart="4209.00" from="H9I9" to="K5L5"/>
    <trip id="1h106" depart="4231.00" from="A5B5" to="D10D11"/>
    <trip id="1h107" depart="4242.00" from="L7K7" to="J1J0"/>
    <trip id="1h108" depart="4251.00" from="A5B5" to="B3A3"/>
    <trip id="1h109" depart="4253.00" from="A5B5" to="B1B0"/>
    <trip id="1h110" depart="4255.00" from="H0H1" to="J1J0"/>
    <trip id="1h111" depart="4261.00" from="L3K3" to="D10D11"/>
    <trip id="1h112" depart="4269.00" from="J2I2" to="K9L9"/>
    <trip id="1h113" depart="4271.00" from="B11B10" to="H10H11"/>
    <trip id="1h114" depart="4287.00" from="J11J10" to="B7A7"/>
    <trip id="1h115" depart="4294.00" from="D6D7" to="K5L5"/>
    <trip id="1h116" depart="4294.00" from="L7K7" to="F1F0"/>
    <trip id="1h117" depart="4297.00" from="H1I1" to="J1J0"/>
    <trip id="1h118" depart="4297.00" from="E4E5" to="K5L5"/>
    <trip id="1h119" depart="4300.00" from="D5D6" to="K9L9"/>
    <trip id="1h120" depart="4306.00" from="A9B9" to="B1B0"/>
    <trip id="1h121" depart="4311.00" from="D0D1" to="K1L1"/>
    <trip id="1h122" depart="4314.00" from="G1G2" to="J1J0"/>
    <trip id="1h123" depart="4317.00" from="A9B9" to="B7A7"/>
    <trip id="1h124" depart="4330.00" from="B11B10" to="K3J3"/>
    <trip id="1h125" depart="4334.00" from="J4J3" to="K5L5"/>
    <trip id="1h126" depart="4340.00" from="A5B5" to="B1B0"/>
    <trip id="1h127" depart="4345.00" from="A5B5" to="K9L9"/>
    <trip id="1h128" depart="4347.00" from="A5B5" to="D10D11"/>
    <trip id="1h129" depart="4349.00" from="J11J10" to="K1L1"/>
    <trip id="1h130" depart="4359.00" from="L3K3" to="B1B0"/>
    <trip id="1h131" depart="4364.00" from="F11F10" to="J5J4"/>
    <trip id="1h132" depart="4368.00" from="J11J10" to="J1J0"/>
    <trip id="1h133" depart="4371.00" from="A1B1" to="J1J0"/>
    <trip id="1h134" depart="4374.00" from="F8E8" to="K9L9"/>
    <trip id="1h135" depart="4375.00" from="G9G10" to="K9L9"/>
    <trip id="1h136" depart="4378.00" from="C5C4" to="B1B0"/>
    <trip id="1h137" depart="4386.00" from="A1B1" to="H10H11"/>
    <trip id="1h138" depart="4394.00" from="J11J10" to="H10H11"/>
    <trip id="1h139" depart="4403.00" from="B11B10" to="K9L9"/>
    <trip id="1h140" depart="4409.00" from="D0D1" to="K9L9"/>
    <trip id="1h141" depart="4411.00" from="F11F10" to="B3A3"/>
    <trip id="1h142" depart="4421.00" from="L3K3" to="B7A7"/>
    <trip id="1h143" depart="4432.00" from="F11F10" to="K5L5"/>
    <trip id="1h144" depart="4441.00" from="B6B5" to="H1H2"/>
    <trip id="1h145" depart="4448.00" from="L7K7" to="K9L9"/>
    <trip id="1h146" depart="4454.00" from="L7K7" to="B3A3"/>
    <trip id="1h147" depart="4458.00" from="L7K7" to="B1B0"/>
    <trip id="1h148" depart="4463.00" from="L3K3" to="J1J0"/>
    <trip id="1h149" depart="4468.00" from="C3B3" to="C8B8"/>
    <trip id="1h150" depart="4477.00" from="L3K3" to="D10D11"/>
    <trip id="1h151" depart="4484.00" from="J11J10" to="H10H11"/>
    <trip id="1h152" depart="4486.00" from="D0D1" to="K5L5"/>
    <trip id="1h153" depart="4487.00" from="J6J5" to="B1B0"/>
    <trip id="1h154" depart="4492.00" from="D0D1" to="B7A7"/>
    <trip id="1h155" depart="4493.00" from="A5B5" to="D3C3"/>
    <trip id="1h156" depart="4502.00" from="A9B9" to="H10H11"/>
    <trip id="1h157" depart="4509.00" from="B11B10" to="F1F0"/>
    <trip id="1h158" depart="4515.00" from="A5B5" to="D10D11"/>
    <trip id="1h159" depart="4520.00" from="A9B9" to="K1L1"/>
    <trip id="1h160" depart="4529.00" from="E3E2" to="D10D11"/>
    <trip id="1h161" depart="4532.00" from="C1C2" to="J1J0"/>
    <trip id="1h162" depart="4537.00" from="A1B1" to="C8D8"/>
    <trip id="1h163" depart="4538.00" from="A9B9" to="D10D11"/>
    <trip id="1h164" depart="4544.00" from="J3I3" to="K5L5"/>
    <trip id="1h165" depart="4547.00" from="F10F9" to="J1J0"/>
    <trip id="1h166" depart="4547.00" from="G9G8" to="B3A3"/>
    <trip id="1h167" depart="4551.00" from="B11B10" to="J1J0"/>
    <trip id="1h168" depart="4571.00" from="J11J10" to="K1L1"/>
    <trip id="1h169" depart="4581.00" from="J11J10" to="K9L9"/>
    <trip id="1h170" depart="4596.00" from="A5B5" to="B7B6"/>
    <trip id="1h171" depart="4604.00" from="L3K3" to="B1B0"/>
    <trip id="1h172" depart="4608.00" from="A5B5" to="D4D5"/>
    <trip id="1h173" depart="4610.00" from="A1B1" to="H10H11"/>
    <trip id="1h174" depart="4621.00" from="L3K3" to="H10H11"/>
    <trip id="1h175" depart="4623.00" from="F11F10" to="E6E5"/>
    <trip id="1h176" depart="4626.00" from="H1H2" to="K1L1"/>
    <trip id="1h177" depart="4631.00" from="D0D1" to="B3A3"/>
    <trip id="1h178" depart="4641.00" from="D0D1" to="H10H11"/>
    <trip id="1h179" depart="4641.00" from="B11B10" to="B3A3"/>
    <trip id="1h180" depart="4645.00" from="L3K3" to="K5L5"/>
    <trip id="1h181" depart="4647.00" from="B11B10" to="D10D11"/>
    <trip id="1h182" depart="4655.00" from="D0D1" to="D10D11"/>
    <trip id="1h183" depart="4659.00" from="A5B5" to="K5L5"/>
    <trip id="1h184" depart="4666.00" from="B11B10" to="H10H11"/>
    <trip id="1h185" depart="4670.00" from="B11B10" to="J1J0"/>
    <trip id="1h186" depart="4676.00" from="D0D1" to="B3A3"/>
    <trip id="1h187" depart="4677.00" from="B11B10" to="B1B0"/>
    <trip id="1h188" depart="4678.00" from="B11B10" to="D10D11"/>
    <trip id="1h189" depart="4690.00" from="A1B1" to="J1J0"/>
    <trip id="1h190" depart="4699.00" from="L7K7" to="D10D11"/>
    <trip id="1h191" depart="4706.00" from="J11J10" to="H10H11"/>
    <trip id="1h192" depart="4713.00" from="I10I9" to="B7A7"/>
    <trip id="1h193" depart="4720.00" from="D0D1" to="B1B0"/>
    <trip id="1h194" depart="4724.00" from="K9K10" to="B1B0"/>
    <trip id="1h195" depart="4730.00" from="J11J10" to="F1F0"/>
    <trip id="1h196" depart="4736.00" from="L3K3" to="B3A3"/>
    <trip id="1h197" depart="4747.00" from="J11J10" to="D10D11"/>
    <trip id="1h198" depart="4750.00" from="A9B9" to="H10H11"/>
    <trip id="1h199" depart="4753.00" from="A5B5" to="D10D11"/>
    <trip id="1h200" depart="4770.00" from="A9B9" to="B1B0"/>
    <trip id="1h201" depart="4778.00" from="H0H1" to="J1J0"/>
    <trip id="1h202" depart="4782.00" from="D0D1" to="B1B0"/>
    <trip id="1h203" depart="4794.00" from="L7K7" to="B7A7"/>
    <trip id="1h204" depart="4794.00" from="A9B9" to="K1L1"/>
    <trip id="1h205" depart="4815.00" from="L3K3" to="B1B0"/>
    <trip id="1h206" depart="4822.00" from="L3K3" to="F1F0"/>
    <trip id="1h207" depart="4824.00" from="D0D1" to="K5L5"/>
    <trip id="1h208" depart="4827.00" from="A1B1" to="K1L1"/>
    <trip id="1h209" depart="4829.00" from="J11J10" to="B7A7"/>
    <trip id="1h210" depart="4830.00" from="A9B9" to="B7A7"/>
    <trip id="1h211" depart="4834.00" from="J11J10" to="B3A3"/>
    <trip id="1h212" depart="4837.00" from="J11J10" to="J1J0"/>
    <trip id="1h213" depart="4840.00" from="B11B10" to="B3A3"/>
    <trip id="1h214" depart="4844.00" from="F11F10" to="B3A3"/>
    <trip id="1h215" depart="4848.00" from="B11B10" to="B3A3"/>
    <trip id="1h216" depart="4856.00" from="J11J10" to="F5F4"/>
    <trip id="1h217" depart="4857.00" from="H8I8" to="H10H11"/>
    <trip id="1h218" depart="4863.00" from="A1B1" to="B1B0"/>
    <trip id="1h219" depart="4863.00" from="B11B10" to="B10B9"/>
    <trip id="1h220" depart="4867.00" from="L3K3" to="J1J0"/>
    <trip id="1h221" depart="4877.00" from="J11J10" to="G3F3"/>
    <trip id="1h222" depart="4883.00" from="A5B5" to="K5L5"/>
    <trip id="1h223" depart="4886.00" from="J11J10" to="K1L1"/>
    <trip id="1h224" depart="4891.00" from="A1B1" to="K1L1"/>
    <trip id="1h225" depart="4891.00" from="L3K3" to="B3A3"/>
    <trip id="1h226" depart="4904.00" from="A9B9" to="K9L9"/>
    <trip id="1h227" depart="4907.00" from="B11B10" to="I4I3"/>
    <trip id="1h228" depart="4921.00" from="L3K3" to="K1L1"/>
    <trip id="1h229" depart="4923.00" from="D4D5" to="K1L1"/>
    <trip id="1h230" depart="4926.00" from="D0D1" to="J1J0"/>
    <trip id="1h231" depart="4927.00" from="A9B9" to="F1F0"/>
    <trip id="1h232" depart="4934.00" from="A1B1" to="K5L5"/>
    <trip id="1h233" depart="4942.00" from="F11F10" to="F5G5"/>
    <trip id="1h234" depart="4943.00" from="A9B9" to="B3A3"/>
    <trip id="1h235" depart="4952.00" from="J11J10" to="K9L9"/>
    <trip id="1h236" depart="4954.00" from="E8E9" to="K5K6"/>
    <trip id="1h237" depart="4963.00" from="A9B9" to="K1L1"/>
    <trip id="1h238" depart="4969.00" from="C2D2" to="K9L9"/>
    <trip id="1h239" depart="4978.00" from="A9B9" to="J1J0"/>
    <trip id="1h240" depart="4979.00" from="F11F10" to="C4B4"/>
    <trip id="1h241" depart="4983.00" from="A5B5" to="B7A7"/>
    <trip id="1h242" depart="4991.00" from="L7K7" to="D10D11"/>
    <trip id="1h243" depart="4991.00" from="A9B9" to="B3A3"/>
    <trip id="1h244" depart="4998.00" from="H5H6" to="K9L9"/>
    <trip id="1h245" depart="5010.00" from="A1B1" to="J1J0"/>
    <trip id="1h246" depart="5014.00" from="B11B10" to="B7A7"/>
    <trip id="1h247" depart="5017.00" from="H0H1" to="J1J0"/>
    <trip id="1h248" depart="5018.00" from="H0H1" to="B7A7"/>
    <trip id="1h249" depart="5030.00" from="A9B9" to="K1L1"/>
    <trip id="1h250" depart="5032.00" from="H0H1" to="B7A7"/>
    <trip id="1h251" depart="5037.00" from="A1B1" to="B7A7"/>
    <trip id="1h252" depart="5042.00" from="K3J3" to="G4F4"/>
    <trip id="1h253" depart="5050.00" from="J9K9" to="C9C8"/>
    <trip id="1h254" depart="5050.00" from="B3B2" to="F1F0"/>
    <trip id="1h255" depart="5055.00" from="H0H1" to="G7G6"/>
    <trip id="1h256" depart="5058.00" from="F11F10" to="F1F0"/>
    <trip id="1h257" depart="5072.00" from="F11F10" to="B1B0"/>
    <trip id="1h258" depart="5072.00" from="B11B10" to="K9L9"/>
    <trip id="1h259" depart="5075.00" from="A5B5" to="K5L5"/>
    <trip id="1h260" depart="5081.00" from="H0H1" to="J1J0"/>
    <trip id="1h261" depart="5088.00" from="B11B10" to="F2F1"/>
    <trip id="1h262" depart="5100.00" from="B11B10" to="B1B0"/>
    <trip id="1h263" depart="5102.00" from="C7C8" to="G7G8"/>
    <trip id="1h264" depart="5104.00" from="B11B10" to="B3A3"/>
    <trip id="1h265" depart="5104.00" from="A5B5" to="B7A7"/>
    <trip id="1h266" depart="5121.00" from="D0D1" to="F1F0"/>
    <trip id="1h267" depart="5127.00" from="H0H1" to="K9L9"/>
    <trip id="1h268" depart="5129.00" from="A5B5" to="K9L9"/>
    <trip id="1h269" depart="5141.00" from="A9B9" to="J1J0"/>
    <trip id="1h270" depart="5144.00" from="H0H1" to="H10H11"/>
    <trip id="1h271" depart="5145.00" from="A9B9" to="K9L9"/>
    <trip id="1h272" depart="5149.00" from="I5J5" to="K6J6"/>
    <trip id="1h273" depart="5155.00" from="A9B9" to="K1L1"/>
    <trip id="1h274" depart="5162.00" from="F11F10" to="B3A3"/>
    <trip id="1h275" depart="5179.00" from="J11J10" to="D10D11"/>
    <trip id="1h276" depart="5185.00" from="E3E2" to="G8H8"/>
    <trip id="1h277" depart="5186.00" from="J11J10" to="F1F0"/>
    <trip id="1h278" depart="5195.00" from="L3K3" to="K5L5"/>
    <trip id="1h279" depart="5198.00" from="H0H1" to="K1L1"/>
    <trip id="1h280" depart="5204.00" from="A9B9" to="K5L5"/>
    <trip id="1h281" depart="5204.00" from="H1I1" to="E1F1"/>
    <trip id="1h282" depart="5205.00" from="A1B1" to="D10D11"/>
    <trip id="1h283" depart="5208.00" from="L3K3" to="F1F0"/>
    <trip id="1h284" depart="5209.00" from="H0H1" to="F1F0"/>
    <trip id="1h285" depart="5209.00" from="H0H1" to="K9L9"/>
    <trip id="1h286" depart="5211.00" from="J11J10" to="K1L1"/>
    <trip id="1h287" depart="5215.00" from="L7K7" to="H10H11"/>
    <trip id="1h288" depart="5215.00" from="L7K7" to="K5L5"/>
    <trip id="1h289" depart="5220.00" from="J11J10" to="B1B0"/>
    <trip id="1h290" depart="5222.00" from="A5B5" to="H10H11"/>
    <trip id="1h291" depart="5226.00" from="L7K7" to="B7A7"/>
    <trip id="1h292" depart="5237.00" from="B11B10" to="D10D11"/>
    <trip id="1h293" depart="5239.00" from="A1B1" to="B3A3"/>
    <trip id="1h294" depart="5243.00" from="D0D1" to="K9L9"/>
    <trip id="1h295" depart="5243.00" from="H0H1" to="H10H11"/>
    <trip id="1h296" depart="5243.00" from="B7B6" to="K9L9"/>
    <trip id="1h297" depart="5248.00" from="F11F10" to="D4E4"/>
    <trip id="1h298" depart="5251.00" from="J11J10" to="H10H11"/>
    <trip id="1h299" depart="5256.00" from="D0D1" to="B3A3"/>
    <trip id="1h300" depart="5264.00" from="A5B5" to="I6I5"/>
    <trip id="1h301" depart="5264.00" from="A1B1" to="B7A7"/>
    <trip id="1h302" depart="5273.00" from="H0H1" to="D4E4"/>
    <trip id="1h303" depart="5288.00" from="F11F10" to="J1J0"/>
    <trip id="1h304" depart="5298.00" from="C6D6" to="F1F0"/>
    <trip id="1h305" depart="5308.00" from="H0H1" to="B7A7"/>
    <trip id="1h306" depart="5311.00" from="L7K7" to="B3A3"/>
    <trip id="1h307" depart="5312.00" from="A5B5" to="B7A7"/>
    <trip id="1h308" depart="5312.00" from="H0H1" to="J1J0"/>
    <trip id="1h309" depart="5319.00" from="D0D1" to="H10H11"/>
    <trip id="1h310" depart="5329.00" from="L3K3" to="H10H11"/>
    <trip id="1h311" depart="5336.00" from="A9B9" to="F1F0"/>
    <trip id="1h312" depart="5343.00" from="L3K3" to="B3A3"/>
    <trip id="1h313" depart="5345.00" from="D0D1" to="B3A3"/>
    <trip id="1h314" depart="5356.00" from="F11F10" to="B7A7"/>
    <trip id="1h315" depart="5356.00" from="F11F10" to="G9G8"/>
    <trip id="1h316" depart="5366.00" from="J11J10" to="B3A3"/>
    <trip id="1h317" depart="5367.00" from="J11J10" to="B7A7"/>
    <trip id="1h318" depart="5373.00" from="A1B1" to="K9L9"/>
    <trip id="1h319" depart="5374.00" from="H0H1" to="D10D11"/>
    <trip id="1h320" depart="5381.00" from="L3K3" to="H10H11"/>
    <trip id="1h321" depart="5385.00" from="D0D1" to="D10D11"/>
    <trip id="1h322" depart="5392.00" from="L3K3" to="H10H11"/>
    <trip id="1h323" depart="5395.00" from="L7K7" to="D10D11"/>
    <trip id="1h324" depart="5396.00" from="A5B5" to="F1F0"/>
    <trip id="1h325" depart="5402.00" from="L3K3" to="K9L9"/>
    <trip id="1h326" depart="5411.00" from="K8J8" to="F1F0"/>
    <trip id="1h327" depart="5421.00" from="B11B10" to="H10H11"/>
    <trip id="1h328" depart="5427.00" from="L7K7" to="H10H11"/>
    <trip id="1h329" depart="5435.00" from="L3K3" to="D10D11"/>
    <trip id="1h330" depart="5437.00" from="A5B5" to="F1F0"/>
    <trip id="1h331" depart="5439.00" from="A9B9" to="G3G2"/>
    <trip id="1h332" depart="5447.00" from="J11J10" to="B1B0"/>
    <trip id="1h333" depart="5453.00" from="D6D7" to="H10H11"/>
    <trip id="1h334" depart="5457.00" from="B11B10" to="B7A7"/>
    <trip id="1h335" depart="5458.00" from="B1C1" to="B7A7"/>
    <trip id="1h336" depart="5468.00" from="A1B1" to="B3A3"/>
    <trip id="1h337" depart="5468.00" from="L3K3" to="B1B0"/>
    <trip id="1h338" depart="5469.00" from="F11F10" to="B7A7"/>
    <trip id="1h339" depart="5469.00" from="F11F10" to="H10H11"/>
    <trip id="1h340" depart="5476.00" from="C6B6" to="D10D11"/>
    <trip id="1h341" depart="5480.00" from="B11B10" to="B3A3"/>
    <trip id="1h342" depart="5481.00" from="H0H1" to="K5L5"/>
    <trip id="1h343" depart="5486.00" from="F11F10" to="K1L1"/>
    <trip id="1h344" depart="5495.00" from="H0H1" to="B7A7"/>
    <trip id="1h345" depart="5496.00" from="L3K3" to="K1L1"/>
    <trip id="1h346" depart="5498.00" from="L7K7" to="F8E8"/>
    <trip id="1h347" depart="5503.00" from="A5B5" to="B7A7"/>
    <trip id="1h348" depart="5504.00" from="A5B5" to="F1F0"/>
    <trip id="1h349" depart="5507.00" from="J11J10" to="H10H11"/>
    <trip id="1h350" depart="5507.00" from="H0H1" to="J1J0"/>
    <trip id="1h351" depart="5511.00" from="L7K7" to="B7A7"/>
    <trip id="1h352" depart="5513.00" from="L3K3" to="K1L1"/>
    <trip id="1h353" depart="5521.00" from="A9B9" to="F1F0"/>
    <trip id="1h354" depart="5523.00" from="H0H1" to="D5D6"/>
    <trip id="1h355" depart="5528.00" from="A9B9" to="J1J0"/>
    <trip id="1h356" depart="5537.00" from="A9B9" to="H10H11"/>
    <trip id="1h357" depart="5542.00" from="J11J10" to="K9L9"/>
    <trip id="1h358" depart="5542.00" from="I7I6" to="B3A3"/>
    <trip id="1h359" depart="5544.00" from="A5B5" to="D10D11"/>
    <trip id="1h360" depart="5547.00" from="F11F10" to="D10D11"/>
    <trip id="1h361" depart="5561.00" from="F11F10" to="E9F9"/>
    <trip id="1h362" depart="5566.00" from="A9B9" to="B1B0"/>
    <trip id="1h363" depart="5568.00" from="A1B1" to="K9L9"/>
    <trip id="1h364" depart="5569.00" from="F2E2" to="B7A7"/>
    <trip id="1h365" depart="5571.00" from="L7K7" to="H9H10"/>
    <trip id="1h366" depart="5578.00" from="B11B10" to="G1G2"/>
    <trip id="1h367" depart="5579.00" from="J11J10" to="H10H11"/>
    <trip id="1h368" depart="5583.00" from="F11F10" to="D10D11"/>
    <trip id="1h369" depart="5591.00" from="A9B9" to="K1L1"/>
    <trip id="1h370" depart="5595.00" from="B11B10" to="K1L1"/>
    <trip id="1h371" depart="5596.00" from="B11B10" to="H2H3"/>
    <trip id="1h372" depart="5598.00" from="H0H1" to="K9L9"/>
    <trip id="1h373" depart="5600.00" from="L7K7" to="K1L1"/>
    <trip id="1h374" depart="5602.00" from="A5B5" to="G4F4"/>
    <trip id="1h375" depart="5604.00" from="A1B1" to="B3A3"/>
    <trip id="1h376" depart="5604.00" from="H0H1" to="F1F0"/>
    <trip id="1h377" depart="5606.00" from="A9B9" to="K1L1"/>
    <trip id="1h378" depart="5607.00" from="A5B5" to="K9L9"/>
    <trip id="1h379" depart="5608.00" from="L7K7" to="D10D11"/>
    <trip id="1h380" depart="5614.00" from="D0D1" to="B1B0"/>
    <trip id="1h381" depart="5626.00" from="A9B9" to="K9L9"/>
    <trip id="1h382" depart="5627.00" from="F11F10" to="F7F6"/>
    <trip id="1h383" depart="5630.00" from="B11B10" to="F1F0"/>
    <trip id="1h384" depart="5633.00" from="B5B4" to="K1L1"/>
    <trip id="1h385" depart="5634.00" from="A9B9" to="K5L5"/>
    <trip id="1h386" depart="5635.00" from="B11B10" to="K5L5"/>
    <trip id="1h387" depart="5635.00" from="J11J10" to="H10H11"/>
    <trip id="1h388" depart="5643.00" from="E5F5" to="C3C4"/>
    <trip id="1h389" depart="5648.00" from="A1B1" to="J8I8"/>
    <trip id="1h390" depart="5649.00" from="F11F10" to="B3A3"/>
    <trip id="1h391" depart="5653.00" from="F11F10" to="J1J0"/>
    <trip id="1h392" depart="5655.00" from="L7K7" to="F1F0"/>
    <trip id="1h393" depart="5656.00" from="A9B9" to="K1L1"/>
    <trip id="1h394" depart="5657.00" from="D0D1" to="J1J0"/>
    <trip id="1h395" depart="5662.00" from="H0H1" to="B1B0"/>
    <trip id="1h396" depart="5662.00" from="H0H1" to="H10H11"/>
    <trip id="1h397" depart="5668.00" from="H0H1" to="D10D11"/>
    <trip id="1h398" depart="5669.00" from="L3K3" to="K1L1"/>
    <trip id="1h399" depart="5671.00" from="F11F10" to="B1B0"/>
    <trip id="1h400" depart="5680.00" from="H7H8" to="B7A7"/>
    <trip id="1h401" depart="5686.00" from="H0H1" to="K9L9"/>
    <trip id="1h402" depart="5689.00" from="A1B1" to="H10H11"/>
    <trip id="1h403" depart="5691.00" from="J11J10" to="K5L5"/>
    <trip id="1h404" depart="5694.00" from="J11J10" to="J1J0"/>
    <trip id="1h405" depart="5695.00" from="B11B10" to="B1B0"/>
    <trip id="1h406" depart="5697.00" from="B11B10" to="K5L5"/>
    <trip id="1h407" depart="5698.00" from="A9B9" to="D10D11"/>
    <trip id="1h408" depart="5700.00" from="F11F10" to="J4I4"/>
    <trip id="1h409" depart="5735.00" from="L7K7" to="K1L1"/>
    <trip id="1h410" depart="5744.00" from="D9D10" to="B7A7"/>
    <trip id="1h411" depart="5746.00" from="A1B1" to="D10D11"/>
    <trip id="1h412" depart="5748.00" from="J11J10" to="B1B0"/>
    <trip id="1h413" depart="5749.00" from="L3K3" to="K3J3"/>
    <trip id="1h414" depart="5750.00" from="A1B1" to="B7A7"/>
    <trip id="1h415" depart="5751.00" from="B11B10" to="K5L5"/>
    <trip id="1h416" depart="5752.00" from="L7K7" to="F1F0"/>
    <trip id="1h417" depart="5757.00" from="B11B10" to="G6H6"/>
    <trip id="1h418" depart="5768.00" from="A5B5" to="H10H11"/>
    <trip id="1h419" depart="5772.00" from="D0D1" to="H10H11"/>
    <trip id="1h420" depart="5777.00" from="B11B10" to="J1J0"/>
    <trip id="1h421" depart="5782.00" from="A5B5" to="K5L5"/>
    <trip id="1h422" depart="5783.00" from="L7K7" to="H10H11"/>
    <trip id="1h423" depart="5793.00" from="J9K9" to="G5G4"/>
    <trip id="1h424" depart="5794.00" from="H0H1" to="K1L1"/>
    <trip id="1h425" depart="5799.00" from="L7K7" to="D10D11"/>
    <trip id="1h426" depart="5804.00" from="J7I7" to="H10H11"/>
    <trip id="1h427" depart="5806.00" from="A1B1" to="B1B0"/>
    <trip id="1h428" depart="5810.00" from="B11B10" to="B7A7"/>
    <trip id="1h429" depart="5810.00" from="A1B1" to="B1B0"/>
    <trip id="1h430" depart="5816.00" from="A9B9" to="B3A3"/>
    <trip id="1h431" depart="5817.00" from="A5B5" to="F1F0"/>
    <trip id="1h432" depart="5818.00" from="H0H1" to="B7A7"/>
    <trip id="1h433" depart="5835.00" from="D0D1" to="B3A3"/>
    <trip id="1h434" depart="5838.00" from="L3K3" to="K9L9"/>
    <trip id="1h435" depart="5841.00" from="A9B9" to="I8I7"/>
    <trip id="1h436" depart="5842.00" from="A1B1" to="B3A3"/>
    <trip id="1h437" depart="5847.00" from="A5B5" to="D10D11"/>
    <trip id="1h438" depart="5851.00" from="L7K7" to="G8H8"/>
    <trip id="1h439" depart="5858.00" from="J11J10" to="D10D11"/>
    <trip id="1h440" depart="5867.00" from="H0H1" to="D10D11"/>
    <trip id="1h441" depart="5868.00" from="A1B1" to="J1J0"/>
    <trip id="1h442" depart="5875.00" from="J5J4" to="J1J0"/>
    <trip id="1h443" depart="5878.00" from="L3K3" to="B1B0"/>
    <trip id="1h444" depart="5879.00" from="L7K7" to="K5L5"/>
    <trip id="1h445" depart="5883.00" from="B6B5" to="J1J0"/>
    <trip id="1h446" depart="5888.00" from="H7G7" to="B7A7"/>
    <trip id="1h447" depart="5889.00" from="B11B10" to="H10H11"/>
    <trip id="1h448" depart="5895.00" from="A5B5" to="B7A7"/>
    <trip id="1h449" depart="5897.00" from="L7K7" to="J1J0"/>
    <trip id="1h450" depart="5904.00" from="F11F10" to="H3H4"/>
    <trip id="1h451" depart="5907.00" from="D1E1" to="C7C6"/>
    <trip id="1h452" depart="5908.00" from="F11F10" to="B1B0"/>
    <trip id="1h453" depart="5909.00" from="L7K7" to="B1B0"/>
    <trip id="1h454" depart="5918.00" from="H0H1" to="B1B0"/>
    <trip id="1h455" depart="5929.00" from="H0H1" to="D10D11"/>
    <trip id="1h456" depart="5930.00" from="L7K7" to="B1B0"/>
    <trip id="1h457" depart="5937.00" from="J11J10" to="H10H11"/>
    <trip id="1h458" depart="5966.00" from="J11J10" to="F1F0"/>
    <trip id="1h459" depart="5970.00" from="L7K7" to="D10D11"/>
    <trip id="1h460" depart="5973.00" from="G8F8" to="F1F0"/>
    <trip id="1h461" depart="5980.00" from="D0D1" to="B7A7"/>
    <trip id="1h462" depart="5985.00" from="J11J10" to="K1L1"/>
    <trip id="1h463" depart="5987.00" from="H8H9" to="F1F0"/>
    <trip id="1h464" depart="5991.00" from="L7K7" to="K9L9"/>
    <trip id="1h465" depart="5996.00" from="L3K3" to="B1B0"/>
    <trip id="1h466" depart="5997.00" from="B11B10" to="K9L9"/>
    <trip id="1h467" depart="6009.00" from="L7K7" to="B7A7"/>
    <trip id="1h468" depart="6013.00" from="D0D1" to="B3A3"/>
    <trip id="1h469" depart="6013.00" from="H0H1" to="B1B0"/>