<?xml version="1.0" encoding="UTF-8"?>
<!-- generated on 2020-12-09 03:18:47.570611 by randomTrips.py v1_7_0+0000-714814baed
  options: -n .\data/grid01-bcn_10.net.xml <doubleminus>prefix=15h <doubleminus>fringe-factor 100 -b 54000 -e 57600 -p0.1998001998001998 <doubleminus>binomial 10 -odata/random/random_h_15-bcn_10.trips.rou.xml <doubleminus>edge-permission=passenger
-->
<routes xmlns:xsi="http://www.w3.org/2001/XMLSchema-instance" xsi:noNamespaceSchemaLocation="http://sumo.dlr.de/xsd/routes_file.xsd">
    <trip id="15h0" depart="54000.00" from="B11B10" to="B7A7"/>
    <trip id="15h1" depart="54000.00" from="D0D1" to="B1B0"/>
    <trip id="15h2" depart="54000.00" from="F11F10" to="B1B0"/>
    <trip id="15h3" depart="54000.00" from="H0H1" to="H10H11"/>
    <trip id="15h4" depart="54000.00" from="G2H2" to="K1L1"/>
    <trip id="15h5" depart="54000.00" from="J2I2" to="J1J0"/>
    <trip id="15h6" depart="54001.00" from="A5B5" to="K9L9"/>
    <trip id="15h7" depart="54001.00" from="A5B5" to="B3A3"/>
    <trip id="15h8" depart="54001.00" from="F11F10" to="K5L5"/>
    <trip id="15h9" depart="54002.00" from="A9B9" to="D10D11"/>
    <trip id="15h10" depart="54002.00" from="A9B9" to="B3A3"/>
    <trip id="15h11" depart="54002.00" from="H0H1" to="D10D11"/>
    <trip id="15h12" depart="54002.00" from="A9B9" to="C10B10"/>
    <trip id="15h13" depart="54003.00" from="J11J10" to="B3A3"/>
    <trip id="15h14" depart="54003.00" from="L7K7" to="J1J0"/>
    <trip id="15h15" depart="54003.00" from="A1B1" to="D10D11"/>
    <trip id="15h16" depart="54003.00" from="A9B9" to="K9L9"/>
    <trip id="15h17" depart="54003.00" from="H0H1" to="E7E6"/>
    <trip id="15h18" depart="54004.00" from="B11B10" to="B7A7"/>
    <trip id="15h19" depart="54004.00" from="F9G9" to="K5L5"/>
    <trip id="15h20" depart="54004.00" from="A9B9" to="K9L9"/>
    <trip id="15h21" depart="54004.00" from="A1B1" to="B3A3"/>
    <trip id="15h22" depart="54004.00" from="A1B1" to="D8D9"/>
    <trip id="15h23" depart="54005.00" from="J11J10" to="J1J0"/>
    <trip id="15h24" depart="54005.00" from="H0H1" to="B3A3"/>
    <trip id="15h25" depart="54005.00" from="D0D1" to="K9L9"/>
    <trip id="15h26" depart="54005.00" from="F11F10" to="B7A7"/>
    <trip id="15h27" depart="54006.00" from="H0H1" to="H3H4"/>
    <trip id="15h28" depart="54006.00" from="J11J10" to="H10H11"/>
    <trip id="15h29" depart="54006.00" from="B11B10" to="B1B0"/>
    <trip id="15h30" depart="54007.00" from="A1B1" to="K5L5"/>
    <trip id="15h31" depart="54007.00" from="F11F10" to="B1B0"/>
    <trip id="15h32" depart="54007.00" from="E4E3" to="H10H11"/>
    <trip id="15h33" depart="54007.00" from="L3K3" to="F1F0"/>
    <trip id="15h34" depart="54007.00" from="F11F10" to="J7J6"/>
    <trip id="15h35" depart="54007.00" from="B11B10" to="K9L9"/>
    <trip id="15h36" depart="54008.00" from="F11F10" to="B3A3"/>
    <trip id="15h37" depart="54008.00" from="B11B10" to="H10H11"/>
    <trip id="15h38" depart="54008.00" from="A9B9" to="B1B0"/>
    <trip id="15h39" depart="54008.00" from="L3K3" to="K5L5"/>
    <trip id="15h40" depart="54008.00" from="A9B9" to="J1J0"/>
    <trip id="15h41" depart="54008.00" from="A5B5" to="K9L9"/>
    <trip id="15h42" depart="54008.00" from="J11J10" to="K1L1"/>
    <trip id="15h43" depart="54008.00" from="A5B5" to="F1F0"/>
    <trip id="15h44" depart="54009.00" from="D8D9" to="J7I7"/>
    <trip id="15h45" depart="54009.00" from="D0D1" to="D10D11"/>
    <trip id="15h46" depart="54009.00" from="A9B9" to="F1F0"/>
    <trip id="15h47" depart="54009.00" from="B11B10" to="B7A7"/>
    <trip id="15h48" depart="54009.00" from="L3K3" to="H10H11"/>
    <trip id="15h49" depart="54009.00" from="L7K7" to="K5L5"/>
    <trip id="15h50" depart="54010.00" from="F11F10" to="B7A7"/>
    <trip id="15h51" depart="54010.00" from="A1B1" to="D6D7"/>
    <trip id="15h52" depart="54010.00" from="J11J10" to="F1F0"/>
    <trip id="15h53" depart="54010.00" from="L7K7" to="K9L9"/>
    <trip id="15h54" depart="54011.00" from="B11B10" to="K9L9"/>
    <trip id="15h55" depart="54011.00" from="F9F8" to="G2F2"/>
    <trip id="15h56" depart="54011.00" from="L7K7" to="B1B0"/>
    <trip id="15h57" depart="54011.00" from="G5G6" to="J1J0"/>
    <trip id="15h58" depart="54011.00" from="A5B5" to="K5L5"/>
    <trip id="15h59" depart="54011.00" from="G5G4" to="I10I9"/>
    <trip id="15h60" depart="54012.00" from="F9F8" to="H10H11"/>
    <trip id="15h61" depart="54012.00" from="I8I9" to="B7A7"/>
    <trip id="15h62" depart="54012.00" from="H0H1" to="D10D11"/>
    <trip id="15h63" depart="54012.00" from="J11J10" to="B1B0"/>
    <trip id="15h64" depart="54012.00" from="L7K7" to="K9L9"/>
    <trip id="15h65" depart="54012.00" from="A9B9" to="B9B8"/>
    <trip id="15h66" depart="54013.00" from="A5B5" to="K5L5"/>
    <trip id="15h67" depart="54013.00" from="J8J7" to="D10D11"/>
    <trip id="15h68" depart="54013.00" from="A5B5" to="B3A3"/>
    <trip id="15h69" depart="54014.00" from="G9H9" to="J1J0"/>
    <trip id="15h70" depart="54014.00" from="H0H1" to="B8B7"/>
    <trip id="15h71" depart="54014.00" from="L3K3" to="K5L5"/>
    <trip id="15h72" depart="54014.00" from="D0D1" to="C5D5"/>
    <trip id="15h73" depart="54014.00" from="J11J10" to="J1J0"/>
    <trip id="15h74" depart="54014.00" from="J11J10" to="H10H11"/>
    <trip id="15h75" depart="54014.00" from="A1B1" to="B1B0"/>
    <trip id="15h76" depart="54015.00" from="A5B5" to="D10D11"/>
    <trip id="15h77" depart="54015.00" from="A9B9" to="B3A3"/>
    <trip id="15h78" depart="54016.00" from="H0H1" to="B3A3"/>
    <trip id="15h79" depart="54016.00" from="J11J10" to="D10D11"/>
    <trip id="15h80" depart="54017.00" from="J11J10" to="B3A3"/>
    <trip id="15h81" depart="54017.00" from="J8J7" to="F1F0"/>
    <trip id="15h82" depart="54017.00" from="J11J10" to="B7A7"/>
    <trip id="15h83" depart="54017.00" from="A9B9" to="D10D11"/>
    <trip id="15h84" depart="54017.00" from="H0H1" to="F10F9"/>
    <trip id="15h85" depart="54018.00" from="L7K7" to="B7A7"/>
    <trip id="15h86" depart="54018.00" from="A5B5" to="F1F0"/>
    <trip id="15h87" depart="54018.00" from="H0H1" to="G6F6"/>
    <trip id="15h88" depart="54018.00" from="F4F3" to="B7A7"/>
    <trip id="15h89" depart="54019.00" from="L7K7" to="H10H11"/>
    <trip id="15h90" depart="54019.00" from="A1B1" to="J1J0"/>
    <trip id="15h91" depart="54019.00" from="B11B10" to="K5L5"/>
    <trip id="15h92" depart="54019.00" from="B11B10" to="F1F0"/>
    <trip id="15h93" depart="54019.00" from="B11B10" to="B3A3"/>
    <trip id="15h94" depart="54019.00" from="L7K7" to="J1J0"/>
    <trip id="15h95" depart="54020.00" from="F11F10" to="B10B9"/>
    <trip id="15h96" depart="54020.00" from="D0D1" to="H10H11"/>
    <trip id="15h97" depart="54020.00" from="D0D1" to="B7A7"/>
    <trip id="15h98" depart="54020.00" from="L3K3" to="K1L1"/>
    <trip id="15h99" depart="54020.00" from="A1B1" to="G8F8"/>
    <trip id="15h100" depart="54020.00" from="J9K9" to="K1L1"/>
    <trip id="15h101" depart="54021.00" from="A9B9" to="B1B0"/>
    <trip id="15h102" depart="54021.00" from="E3E2" to="K5L5"/>
    <trip id="15h103" depart="54021.00" from="D0D1" to="I8I7"/>
    <trip id="15h104" depart="54021.00" from="H5H6" to="F6F5"/>
    <trip id="15h105" depart="54021.00" from="H0H1" to="B1B0"/>
    <trip id="15h106" depart="54021.00" from="D0D1" to="B5C5"/>
    <trip id="15h107" depart="54022.00" from="A9B9" to="K5L5"/>
    <trip id="15h108" depart="54022.00" from="J11J10" to="J1J0"/>
    <trip id="15h109" depart="54023.00" from="B11B10" to="B7A7"/>
    <trip id="15h110" depart="54023.00" from="A1B1" to="C9D9"/>
    <trip id="15h111" depart="54024.00" from="B11B10" to="H10H11"/>
    <trip id="15h112" depart="54024.00" from="A9B9" to="J1J0"/>
    <trip id="15h113" depart="54024.00" from="D0D1" to="H10H11"/>
    <trip id="15h114" depart="54024.00" from="A9B9" to="F1F0"/>
    <trip id="15h115" depart="54025.00" from="A1B1" to="D10D11"/>
    <trip id="15h116" depart="54025.00" from="J11J10" to="H10H11"/>
    <trip id="15h117" depart="54025.00" from="A9B9" to="F1F0"/>
    <trip id="15h118" depart="54025.00" from="B11B10" to="J1J0"/>
    <trip id="15h119" depart="54025.00" from="A5B5" to="F1F0"/>
    <trip id="15h120" depart="54025.00" from="H0H1" to="B1B0"/>
    <trip id="15h121" depart="54026.00" from="F11F10" to="B1B0"/>
    <trip id="15h122" depart="54026.00" from="D4E4" to="B1B0"/>
    <trip id="15h123" depart="54026.00" from="A9B9" to="D10D11"/>
    <trip id="15h124" depart="54026.00" from="J11J10" to="K5L5"/>
    <trip id="15h125" depart="54026.00" from="A1B1" to="B1B0"/>
    <trip id="15h126" depart="54026.00" from="H0H1" to="K1L1"/>
    <trip id="15h127" depart="54027.00" from="A1B1" to="B3A3"/>
    <trip id="15h128" depart="54027.00" from="H0H1" to="H10H11"/>
    <trip id="15h129" depart="54027.00" from="H7G7" to="K1L1"/>
    <trip id="15h130" depart="54027.00" from="H0H1" to="K1L1"/>
    <trip id="15h131" depart="54027.00" from="K10J10" to="K9L9"/>
    <trip id="15h132" depart="54027.00" from="A1B1" to="D10D11"/>
    <trip id="15h133" depart="54028.00" from="I7I6" to="B1B0"/>
    <trip id="15h134" depart="54028.00" from="J11J10" to="K5L5"/>
    <trip id="15h135" depart="54028.00" from="L7K7" to="K1L1"/>
    <trip id="15h136" depart="54028.00" from="D0D1" to="D10D11"/>
    <trip id="15h137" depart="54028.00" from="L3K3" to="K3J3"/>
    <trip id="15h138" depart="54029.00" from="L7K7" to="J1J0"/>
    <trip id="15h139" depart="54029.00" from="J11J10" to="K9L9"/>
    <trip id="15h140" depart="54029.00" from="J3J2" to="H10H11"/>
    <trip id="15h141" depart="54029.00" from="D0D1" to="J8I8"/>
    <trip id="15h142" depart="54029.00" from="L3K3" to="K5L5"/>
    <trip id="15h143" depart="54029.00" from="L3K3" to="B7A7"/>
    <trip id="15h144" depart="54029.00" from="H0H1" to="D6D7"/>
    <trip id="15h145" depart="54029.00" from="L3K3" to="B7A7"/>
    <trip id="15h146" depart="54030.00" from="J11J10" to="D10D11"/>
    <trip id="15h147" depart="54030.00" from="A1B1" to="K9L9"/>
    <trip id="15h148" depart="54030.00" from="J11J10" to="F3E3"/>
    <trip id="15h149" depart="54030.00" from="J11J10" to="B3A3"/>
    <trip id="15h150" depart="54030.00" from="H1I1" to="D10D11"/>
    <trip id="15h151" depart="54031.00" from="F11F10" to="F1F0"/>
    <trip id="15h152" depart="54031.00" from="H9H10" to="C3B3"/>
    <trip id="15h153" depart="54031.00" from="A5B5" to="B7A7"/>
    <trip id="15h154" depart="54031.00" from="F11F10" to="K1L1"/>
    <trip id="15h155" depart="54031.00" from="A9B9" to="F1F0"/>
    <trip id="15h156" depart="54032.00" from="A5B5" to="B7A7"/>
    <trip id="15h157" depart="54032.00" from="A9B9" to="B1B0"/>
    <trip id="15h158" depart="54032.00" from="L7K7" to="H10H11"/>
    <trip id="15h159" depart="54032.00" from="L3K3" to="F4F3"/>
    <trip id="15h160" depart="54032.00" from="D0D1" to="B7A7"/>
    <trip id="15h161" depart="54032.00" from="L7K7" to="F1F0"/>
    <trip id="15h162" depart="54033.00" from="A1B1" to="I7I6"/>
    <trip id="15h163" depart="54033.00" from="A5B5" to="H10H11"/>
    <trip id="15h164" depart="54033.00" from="L7K7" to="B3A3"/>
    <trip id="15h165" depart="54033.00" from="F11F10" to="F1F0"/>
    <trip id="15h166" depart="54033.00" from="L3K3" to="K9L9"/>
    <trip id="15h167" depart="54033.00" from="H0H1" to="H4H5"/>
    <trip id="15h168" depart="54034.00" from="A9B9" to="J1J0"/>
    <trip id="15h169" depart="54034.00" from="A9B9" to="B1B0"/>
    <trip id="15h170" depart="54034.00" from="D0D1" to="H10H11"/>
    <trip id="15h171" depart="54034.00" from="A9B9" to="J1J0"/>
    <trip id="15h172" depart="54034.00" from="H0H1" to="K9L9"/>
    <trip id="15h173" depart="54035.00" from="F11F10" to="J1J0"/>
    <trip id="15h174" depart="54035.00" from="A5B5" to="D10D11"/>
    <trip id="15h175" depart="54035.00" from="A5B5" to="J1J0"/>
    <trip id="15h176" depart="54036.00" from="F11F10" to="B1B0"/>
    <trip id="15h177" depart="54036.00" from="D0D1" to="D10D11"/>
    <trip id="15h178" depart="54036.00" from="A5B5" to="K9L9"/>
    <trip id="15h179" depart="54036.00" from="A1B1" to="K1L1"/>
    <trip id="15h180" depart="54037.00" from="H0H1" to="K9L9"/>
    <trip id="15h181" depart="54037.00" from="G10F10" to="J1J0"/>
    <trip id="15h182" depart="54037.00" from="A5B5" to="D10D11"/>
    <trip id="15h183" depart="54037.00" from="H0H1" to="K5L5"/>
    <trip id="15h184" depart="54037.00" from="H3G3" to="D10D11"/>
    <trip id="15h185" depart="54037.00" from="B11B10" to="D10D11"/>
    <trip id="15h186" depart="54038.00" from="F11F10" to="K9L9"/>
    <trip id="15h187" depart="54038.00" from="A9B9" to="D10D11"/>
    <trip id="15h188" depart="54038.00" from="F11F10" to="K9L9"/>
    <trip id="15h189" depart="54038.00" from="H6H7" to="B3A3"/>
    <trip id="15h190" depart="54039.00" from="A5B5" to="H10H11"/>
    <trip id="15h191" depart="54039.00" from="L7K7" to="K8J8"/>
    <trip id="15h192" depart="54039.00" from="A5B5" to="K5L5"/>
    <trip id="15h193" depart="54039.00" from="I8I9" to="G5G4"/>
    <trip id="15h194" depart="54039.00" from="L3K3" to="K9L9"/>
    <trip id="15h195" depart="54039.00" from="F11F10" to="D9D10"/>
    <trip id="15h196" depart="54040.00" from="J11J10" to="F1F0"/>
    <trip id="15h197" depart="54040.00" from="B11B10" to="H10H11"/>
    <trip id="15h198" depart="54040.00" from="A5B5" to="H10H11"/>
    <trip id="15h199" depart="54040.00" from="F11F10" to="H10H11"/>
    <trip id="15h200" depart="54041.00" from="B11B10" to="B7A7"/>
    <trip id="15h201" depart="54041.00" from="J11J10" to="B1B0"/>
    <trip id="15h202" depart="54041.00" from="H0H1" to="K1L1"/>
    <trip id="15h203" depart="54041.00" from="A1B1" to="G1H1"/>
    <trip id="15h204" depart="54042.00" from="F11F10" to="F1F0"/>
    <trip id="15h205" depart="54042.00" from="H0H1" to="B3A3"/>
    <trip id="15h206" depart="54042.00" from="L7K7" to="D10D11"/>
    <trip id="15h207" depart="54043.00" from="B11B10" to="J1J0"/>
    <trip id="15h208" depart="54043.00" from="A1B1" to="I8I9"/>
    <trip id="15h209" depart="54043.00" from="A5B5" to="J10J9"/>
    <trip id="15h210" depart="54044.00" from="H3H4" to="K5L5"/>
    <trip id="15h211" depart="54044.00" from="J11J10" to="D10D11"/>
    <trip id="15h212" depart="54044.00" from="A5B5" to="H10H11"/>
    <trip id="15h213" depart="54044.00" from="A1B1" to="K5L5"/>
    <trip id="15h214" depart="54044.00" from="L3K3" to="B3A3"/>
    <trip id="15h215" depart="54044.00" from="A9B9" to="B7A7"/>
    <trip id="15h216" depart="54045.00" from="J1K1" to="K5L5"/>
    <trip id="15h217" depart="54045.00" from="D0D1" to="D10D11"/>
    <trip id="15h218" depart="54045.00" from="A9B9" to="K5L5"/>
    <trip id="15h219" depart="54045.00" from="D0D1" to="F1F0"/>
    <trip id="15h220" depart="54045.00" from="F2E2" to="H10H11"/>
    <trip id="15h221" depart="54045.00" from="L7K7" to="J1J0"/>
    <trip id="15h222" depart="54046.00" from="F11F10" to="J1J0"/>
    <trip id="15h223" depart="54046.00" from="H0H1" to="F8E8"/>
    <trip id="15h224" depart="54046.00" from="J11J10" to="H2H3"/>
    <trip id="15h225" depart="54046.00" from="H0H1" to="I2H2"/>
    <trip id="15h226" depart="54047.00" from="D0D1" to="H10H11"/>
    <trip id="15h227" depart="54047.00" from="B11B10" to="K1L1"/>
    <trip id="15h228" depart="54047.00" from="A5B5" to="H10H11"/>
    <trip id="15h229" depart="54048.00" from="K5K6" to="F1F0"/>
    <trip id="15h230" depart="54048.00" from="A5B5" to="K9L9"/>
    <trip id="15h231" depart="54048.00" from="L7K7" to="K5L5"/>
    <trip id="15h232" depart="54049.00" from="J11J10" to="B1B0"/>
    <trip id="15h233" depart="54049.00" from="H0H1" to="J1J0"/>
    <trip id="15h234" depart="54049.00" from="A9B9" to="B1B0"/>
    <trip id="15h235" depart="54050.00" from="A1B1" to="K5K4"/>
    <trip id="15h236" depart="54050.00" from="D0D1" to="B3A3"/>
    <trip id="15h237" depart="54050.00" from="F11F10" to="B3A3"/>
    <trip id="15h238" depart="54050.00" from="D0D1" to="J1J0"/>
    <trip id="15h239" depart="54050.00" from="J11J10" to="B3A3"/>
    <trip id="15h240" depart="54051.00" from="A5B5" to="F3F2"/>
    <trip id="15h241" depart="54051.00" from="L7K7" to="B1B0"/>
    <trip id="15h242" depart="54051.00" from="D0D1" to="K9L9"/>
    <trip id="15h243" depart="54051.00" from="H0H1" to="H10H11"/>
    <trip id="15h244" depart="54051.00" from="D0D1" to="B7A7"/>
    <trip id="15h245" depart="54051.00" from="L3K3" to="F1F0"/>
    <trip id="15h246" depart="54052.00" from="J11J10" to="B7A7"/>
    <trip id="15h247" depart="54052.00" from="F11F10" to="B1B0"/>
    <trip id="15h248" depart="54052.00" from="A9B9" to="K5L5"/>
    <trip id="15h249" depart="54052.00" from="A5B5" to="K5L5"/>
    <trip id="15h250" depart="54052.00" from="L3K3" to="B3A3"/>
    <trip id="15h251" depart="54052.00" from="A9B9" to="B4B3"/>
    <trip id="15h252" depart="54052.00" from="A1B1" to="K1L1"/>
    <trip id="15h253" depart="54053.00" from="B11B10" to="B4B3"/>
    <trip id="15h254" depart="54053.00" from="J11J10" to="H10H11"/>
    <trip id="15h255" depart="54053.00" from="J11J10" to="G7F7"/>
    <trip id="15h256" depart="54053.00" from="F11F10" to="K9L9"/>
    <trip id="15h257" depart="54053.00" from="J11J10" to="K5L5"/>
    <trip id="15h258" depart="54053.00" from="L7K7" to="B1B0"/>
    <trip id="15h259" depart="54053.00" from="D0D1" to="J1J0"/>
    <trip id="15h260" depart="54053.00" from="L3K3" to="B1B0"/>
    <trip id="15h261" depart="54054.00" from="H0H1" to="B1B0"/>
    <trip id="15h262" depart="54054.00" from="H0H1" to="H10H11"/>
    <trip id="15h263" depart="54054.00" from="L7K7" to="H10H11"/>
    <trip id="15h264" depart="54054.00" from="H0H1" to="B3A3"/>
    <trip id="15h265" depart="54054.00" from="D0D1" to="B7A7"/>
    <trip id="15h266" depart="54055.00" from="D0D1" to="F1F0"/>
    <trip id="15h267" depart="54055.00" from="D0D1" to="J1J0"/>
    <trip id="15h268" depart="54055.00" from="A5B5" to="K9L9"/>
    <trip id="15h269" depart="54055.00" from="L3K3" to="B3A3"/>
    <trip id="15h270" depart="54055.00" from="J11J10" to="K1L1"/>
    <trip id="15h271" depart="54055.00" from="A5B5" to="D10D11"/>
    <trip id="15h272" depart="54056.00" from="F5G5" to="B7A7"/>
    <trip id="15h273" depart="54056.00" from="A5B5" to="K5L5"/>
    <trip id="15h274" depart="54056.00" from="J11J10" to="H10H11"/>
    <trip id="15h275" depart="54057.00" from="L7K7" to="K5L5"/>
    <trip id="15h276" depart="54057.00" from="A9B9" to="J1J0"/>
    <trip id="15h277" depart="54057.00" from="B11B10" to="B1B0"/>
    <trip id="15h278" depart="54058.00" from="A5B5" to="J10J9"/>
    <trip id="15h279" depart="54058.00" from="J11J10" to="B7A7"/>
    <trip id="15h280" depart="54058.00" from="B11B10" to="D10D11"/>
    <trip id="15h281" depart="54058.00" from="A1B1" to="B3A3"/>
    <trip id="15h282" depart="54058.00" from="H0H1" to="F1G1"/>
    <trip id="15h283" depart="54059.00" from="B11B10" to="K1L1"/>
    <trip id="15h284" depart="54059.00" from="D0D1" to="C8D8"/>
    <trip id="15h285" depart="54059.00" from="H0H1" to="B1B0"/>
    <trip id="15h286" depart="54059.00" from="G7G6" to="B1B0"/>
    <trip id="15h287" depart="54059.00" from="A9B9" to="B3A3"/>
    <trip id="15h288" depart="54059.00" from="B11B10" to="B1B0"/>
    <trip id="15h289" depart="54059.00" from="D0D1" to="J1J0"/>
    <trip id="15h290" depart="54059.00" from="L3K3" to="K1L1"/>
    <trip id="15h291" depart="54060.00" from="L3K3" to="B1B0"/>
    <trip id="15h292" depart="54060.00" from="L7K7" to="K5L5"/>
    <trip id="15h293" depart="54060.00" from="A5B5" to="B1B0"/>
    <trip id="15h294" depart="54060.00" from="J11J10" to="H9I9"/>
    <trip id="15h295" depart="54060.00" from="L3K3" to="B7A7"/>
    <trip id="15h296" depart="54061.00" from="B11B10" to="D10D11"/>
    <trip id="15h297" depart="54061.00" from="A5B5" to="G5H5"/>
    <trip id="15h298" depart="54061.00" from="F11F10" to="K5L5"/>
    <trip id="15h299" depart="54061.00" from="J11J10" to="K1L1"/>
    <trip id="15h300" depart="54061.00" from="A5B5" to="B7A7"/>
    <trip id="15h301" depart="54062.00" from="J11J10" to="F6F5"/>
    <trip id="15h302" depart="54062.00" from="L7K7" to="H10H11"/>
    <trip id="15h303" depart="54062.00" from="A1B1" to="F1F0"/>
    <trip id="15h304" depart="54063.00" from="B11B10" to="B1B0"/>
    <trip id="15h305" depart="54063.00" from="D0D1" to="B1B0"/>
    <trip id="15h306" depart="54063.00" from="L3K3" to="K5L5"/>
    <trip id="15h307" depart="54063.00" from="F11F10" to="K1L1"/>
    <trip id="15h308" depart="54063.00" from="J4J3" to="J1J0"/>
    <trip id="15h309" depart="54064.00" from="E4E3" to="B3A3"/>
    <trip id="15h310" depart="54064.00" from="A5B5" to="K5L5"/>
    <trip id="15h311" depart="54064.00" from="I7I6" to="G3F3"/>
    <trip id="15h312" depart="54064.00" from="A9B9" to="F1F0"/>
    <trip id="15h313" depart="54064.00" from="F11F10" to="B3A3"/>
    <trip id="15h314" depart="54064.00" from="B11B10" to="F1F0"/>
    <trip id="15h315" depart="54064.00" from="G6H6" to="K1L1"/>
    <trip id="15h316" depart="54064.00" from="A5B5" to="J1J0"/>
    <trip id="15h317" depart="54064.00" from="J11J10" to="J1J0"/>
    <trip id="15h318" depart="54065.00" from="F8E8" to="B3A3"/>
    <trip id="15h319" depart="54065.00" from="L7K7" to="J1J0"/>
    <trip id="15h320" depart="54065.00" from="G5G6" to="K9L9"/>
    <trip id="15h321" depart="54065.00" from="D0D1" to="K1L1"/>
    <trip id="15h322" depart="54066.00" from="C5D5" to="D10D11"/>
    <trip id="15h323" depart="54066.00" from="A9B9" to="K9L9"/>
    <trip id="15h324" depart="54066.00" from="A9B9" to="B3A3"/>
    <trip id="15h325" depart="54066.00" from="L3K3" to="B3A3"/>
    <trip id="15h326" depart="54067.00" from="B11B10" to="K1L1"/>
    <trip id="15h327" depart="54067.00" from="D0D1" to="B3A3"/>
    <trip id="15h328" depart="54067.00" from="D0D1" to="F1F0"/>
    <trip id="15h329" depart="54067.00" from="D0D1" to="C9C8"/>
    <trip id="15h330" depart="54067.00" from="F11F10" to="D10D11"/>
    <trip id="15h331" depart="54068.00" from="L3K3" to="D10D11"/>
    <trip id="15h332" depart="54068.00" from="B11B10" to="D8D9"/>
    <trip id="15h333" depart="54068.00" from="A9B9" to="J1J0"/>
    <trip id="15h334" depart="54069.00" from="L3K3" to="K5L5"/>
    <trip id="15h335" depart="54069.00" from="J11J10" to="C3C4"/>
    <trip id="15h336" depart="54069.00" from="D0D1" to="K9L9"/>
    <trip id="15h337" depart="54069.00" from="D0D1" to="D10D11"/>
    <trip id="15h338" depart="54069.00" from="A1B1" to="G1H1"/>
    <trip id="15h339" depart="54069.00" from="L7K7" to="D3D4"/>
    <trip id="15h340" depart="54069.00" from="L7K7" to="K5L5"/>
    <trip id="15h341" depart="54070.00" from="B11B10" to="K5L5"/>
    <trip id="15h342" depart="54070.00" from="I1J1" to="F1F0"/>
    <trip id="15h343" depart="54070.00" from="A1B1" to="B7A7"/>
    <trip id="15h344" depart="54071.00" from="B11B10" to="D10D11"/>
    <trip id="15h345" depart="54071.00" from="D0D1" to="K1L1"/>
    <trip id="15h346" depart="54071.00" from="A5B5" to="K5L5"/>
    <trip id="15h347" depart="54071.00" from="F11F10" to="B7A7"/>
    <trip id="15h348" depart="54071.00" from="D0D1" to="H7H8"/>
    <trip id="15h349" depart="54071.00" from="D0D1" to="J1J0"/>
    <trip id="15h350" depart="54071.00" from="L7K7" to="B1B0"/>
    <trip id="15h351" depart="54072.00" from="D9E9" to="J1J0"/>
    <trip id="15h352" depart="54072.00" from="A1B1" to="K1L1"/>
    <trip id="15h353" depart="54072.00" from="J11J10" to="I7H7"/>
    <trip id="15h354" depart="54072.00" from="A1B1" to="H10H11"/>
    <trip id="15h355" depart="54073.00" from="J11J10" to="F1F0"/>
    <trip id="15h356" depart="54073.00" from="J11J10" to="F1F0"/>
    <trip id="15h357" depart="54073.00" from="A1B1" to="B7A7"/>
    <trip id="15h358" depart="54073.00" from="L7K7" to="G8F8"/>
    <trip id="15h359" depart="54073.00" from="J11J10" to="B7A7"/>
    <trip id="15h360" depart="54074.00" from="J11J10" to="K5L5"/>
    <trip id="15h361" depart="54074.00" from="A5B5" to="D10D11"/>
    <trip id="15h362" depart="54074.00" from="L7K7" to="F7F6"/>
    <trip id="15h363" depart="54074.00" from="L7K7" to="G9H9"/>
    <trip id="15h364" depart="54074.00" from="G9G10" to="K3J3"/>
    <trip id="15h365" depart="54075.00" from="A1B1" to="J1J0"/>
    <trip id="15h366" depart="54075.00" from="G9G10" to="F1F0"/>
    <trip id="15h367" depart="54075.00" from="A1B1" to="K5L5"/>
    <trip id="15h368" depart="54075.00" from="L7K7" to="C4D4"/>
    <trip id="15h369" depart="54075.00" from="H0H1" to="D10D11"/>
    <trip id="15h370" depart="54076.00" from="H0H1" to="K1L1"/>
    <trip id="15h371" depart="54076.00" from="A1B1" to="K1L1"/>
    <trip id="15h372" depart="54076.00" from="D0D1" to="H10H11"/>
    <trip id="15h373" depart="54076.00" from="J11J10" to="H10H11"/>
    <trip id="15h374" depart="54077.00" from="H0H1" to="B7A7"/>
    <trip id="15h375" depart="54077.00" from="J11J10" to="F9F8"/>
    <trip id="15h376" depart="54077.00" from="F11F10" to="B7A7"/>
    <trip id="15h377" depart="54077.00" from="D0D1" to="K9L9"/>
    <trip id="15h378" depart="54077.00" from="L7K7" to="F4F3"/>
    <trip id="15h379" depart="54077.00" from="L3K3" to="F1F0"/>
    <trip id="15h380" depart="54077.00" from="A5B5" to="J1J0"/>
    <trip id="15h381" depart="54077.00" from="B6B5" to="B1B0"/>
    <trip id="15h382" depart="54078.00" from="A9B9" to="B3A3"/>
    <trip id="15h383" depart="54079.00" from="F11F10" to="D10D11"/>
    <trip id="15h384" depart="54079.00" from="B11B10" to="K9L9"/>
    <trip id="15h385" depart="54079.00" from="L7K7" to="J1J0"/>
    <trip id="15h386" depart="54080.00" from="H0H1" to="D10D11"/>
    <trip id="15h387" depart="54080.00" from="L7K7" to="F1F0"/>
    <trip id="15h388" depart="54080.00" from="A5B5" to="B3A3"/>
    <trip id="15h389" depart="54080.00" from="B11B10" to="J1J0"/>
    <trip id="15h390" depart="54080.00" from="L7K7" to="K5L5"/>
    <trip id="15h391" depart="54081.00" from="H0H1" to="H10H11"/>
    <trip id="15h392" depart="54081.00" from="B11B10" to="H10H11"/>
    <trip id="15h393" depart="54081.00" from="L7K7" to="B3A3"/>
    <trip id="15h394" depart="54082.00" from="A1B1" to="J1J0"/>
    <trip id="15h395" depart="54082.00" from="H0H1" to="F8F7"/>
    <trip id="15h396" depart="54082.00" from="L7K7" to="F1F0"/>
    <trip id="15h397" depart="54082.00" from="A1B1" to="B1B0"/>
    <trip id="15h398" depart="54083.00" from="F10E10" to="B7A7"/>
    <trip id="15h399" depart="54083.00" from="J10I10" to="K10J10"/>
    <trip id="15h400" depart="54083.00" from="C9D9" to="H10H11"/>
    <trip id="15h401" depart="54083.00" from="D7D8" to="C1C2"/>
    <trip id="15h402" depart="54083.00" from="A5B5" to="D10D11"/>
    <trip id="15h403" depart="54083.00" from="H0H1" to="B7A7"/>
    <trip id="15h404" depart="54084.00" from="B11B10" to="H10H11"/>
    <trip id="15h405" depart="54084.00" from="J11J10" to="F8F7"/>
    <trip id="15h406" depart="54084.00" from="B11B10" to="B1B0"/>
    <trip id="15h407" depart="54084.00" from="C1C2" to="B1B0"/>
    <trip id="15h408" depart="54084.00" from="L3K3" to="J1J0"/>
    <trip id="15h409" depart="54084.00" from="F11F10" to="K5L5"/>
    <trip id="15h410" depart="54085.00" from="L3K3" to="J6I6"/>
    <trip id="15h411" depart="54085.00" from="D0D1" to="H10H11"/>
    <trip id="15h412" depart="54085.00" from="F11F10" to="B1B0"/>
    <trip id="15h413" depart="54085.00" from="L7K7" to="J1J0"/>
    <trip id="15h414" depart="54085.00" from="L7K7" to="E6E5"/>
    <trip id="15h415" depart="54085.00" from="L7K7" to="K1L1"/>
    <trip id="15h416" depart="54086.00" from="F11F10" to="G10F10"/>
    <trip id="15h417" depart="54086.00" from="A5B5" to="D10D11"/>
    <trip id="15h418" depart="54086.00" from="D1D2" to="H1I1"/>
    <trip id="15h419" depart="54086.00" from="H0H1" to="B3A3"/>
    <trip id="15h420" depart="54086.00" from="B11B10" to="K5L5"/>
    <trip id="15h421" depart="54087.00" from="J8I8" to="D10D11"/>
    <trip id="15h422" depart="54087.00" from="E3E2" to="K9L9"/>
    <trip id="15h423" depart="54088.00" from="H0H1" to="I1J1"/>
    <trip id="15h424" depart="54088.00" from="H0H1" to="B1B0"/>
    <trip id="15h425" depart="54088.00" from="A1B1" to="D10D11"/>
    <trip id="15h426" depart="54088.00" from="H1H2" to="F1F0"/>
    <trip id="15h427" depart="54089.00" from="A5B5" to="B7A7"/>
    <trip id="15h428" depart="54089.00" from="H0H1" to="H10H11"/>
    <trip id="15h429" depart="54089.00" from="A9B9" to="K8J8"/>
    <trip id="15h430" depart="54089.00" from="C2B2" to="K1L1"/>
    <trip id="15h431" depart="54090.00" from="A9B9" to="H10H11"/>
    <trip id="15h432" depart="54090.00" from="L7K7" to="D10D11"/>
    <trip id="15h433" depart="54090.00" from="A9B9" to="J1J0"/>
    <trip id="15h434" depart="54090.00" from="B7B6" to="K9L9"/>
    <trip id="15h435" depart="54090.00" from="A5B5" to="J1J0"/>
    <trip id="15h436" depart="54090.00" from="L7K7" to="K1L1"/>
    <trip id="15h437" depart="54091.00" from="B11B10" to="J1J0"/>
    <trip id="15h438" depart="54091.00" from="D0D1" to="B7A7"/>
    <trip id="15h439" depart="54091.00" from="A9B9" to="H10H11"/>
    <trip id="15h440" depart="54091.00" from="H0H1" to="H10H11"/>
    <trip id="15h441" depart="54091.00" from="H0H1" to="H10H11"/>
    <trip id="15h442" depart="54091.00" from="D0D1" to="J1J0"/>
    <trip id="15h443" depart="54091.00" from="J11J10" to="B1B0"/>
    <trip id="15h444" depart="54092.00" from="L7K7" to="K5L5"/>
    <trip id="15h445" depart="54092.00" from="A9B9" to="K9L9"/>
    <trip id="15h446" depart="54092.00" from="H0H1" to="K5L5"/>
    <trip id="15h447" depart="54092.00" from="F3E3" to="H10H11"/>
    <trip id="15h448" depart="54092.00" from="L3K3" to="B5C5"/>
    <trip id="15h449" depart="54093.00" from="F11F10" to="K9L9"/>
    <trip id="15h450" depart="54093.00" from="F11F10" to="B3A3"/>
    <trip id="15h451" depart="54093.00" from="L7K7" to="H10H11"/>
    <trip id="15h452" depart="54093.00" from="L7K7" to="K5L5"/>
    <trip id="15h453" depart="54094.00" from="A9B9" to="B3A3"/>
    <trip id="15h454" depart="54094.00" from="D2D3" to="B7A7"/>