<?xml version="1.0" encoding="UTF-8"?>
<!-- generated on 2020-12-09 03:18:32.897995 by randomTrips.py v1_7_0+0000-714814baed
  options: -n .\data/grid01-bcn_10.net.xml <doubleminus>prefix=3h <doubleminus>fringe-factor 100 -b 10800 -e 14400 -p2.3715415019762847 <doubleminus>binomial 10 -odata/random/random_h_3-bcn_10.trips.rou.xml <doubleminus>edge-permission=passenger
-->
<routes xmlns:xsi="http://www.w3.org/2001/XMLSchema-instance" xsi:noNamespaceSchemaLocation="http://sumo.dlr.de/xsd/routes_file.xsd">
    <trip id="3h0" depart="10800.00" from="B11B10" to="B7A7"/>
    <trip id="3h1" depart="10800.00" from="A9B9" to="G3G2"/>
    <trip id="3h2" depart="10800.00" from="A9B9" to="J1J0"/>
    <trip id="3h3" depart="10801.00" from="J2I2" to="J1J0"/>
    <trip id="3h4" depart="10805.00" from="B11B10" to="C1C2"/>
    <trip id="3h5" depart="10809.00" from="J11J10" to="J1J0"/>
    <trip id="3h6" depart="10811.00" from="B11B10" to="B1B0"/>
    <trip id="3h7" depart="10825.00" from="J8J7" to="D10D11"/>
    <trip id="3h8" depart="10827.00" from="J11J10" to="J1J0"/>
    <trip id="3h9" depart="10827.00" from="A1B1" to="K5L5"/>
    <trip id="3h10" depart="10830.00" from="J11J10" to="D10D11"/>
    <trip id="3h11" depart="10832.00" from="A9B9" to="D10D11"/>
    <trip id="3h12" depart="10834.00" from="L7K7" to="H10H11"/>
    <trip id="3h13" depart="10836.00" from="B11B10" to="F1F0"/>
    <trip id="3h14" depart="10838.00" from="A9B9" to="F1F0"/>
    <trip id="3h15" depart="10839.00" from="J11J10" to="K1L1"/>
    <trip id="3h16" depart="10844.00" from="C10B10" to="K1L1"/>
    <trip id="3h17" depart="10845.00" from="B11B10" to="J1J0"/>
    <trip id="3h18" depart="10846.00" from="D0D1" to="H10H11"/>
    <trip id="3h19" depart="10846.00" from="H0H1" to="B3A3"/>
    <trip id="3h20" depart="10847.00" from="F11F10" to="K9L9"/>
    <trip id="3h21" depart="10848.00" from="A5B5" to="B3A3"/>
    <trip id="3h22" depart="10849.00" from="B11B10" to="J1J0"/>
    <trip id="3h23" depart="10854.00" from="L3K3" to="B7A7"/>
    <trip id="3h24" depart="10855.00" from="L7K7" to="B1B0"/>
    <trip id="3h25" depart="10858.00" from="F11F10" to="C4D4"/>
    <trip id="3h26" depart="10863.00" from="D0D1" to="H10H11"/>
    <trip id="3h27" depart="10866.00" from="D0D1" to="D10D11"/>
    <trip id="3h28" depart="10867.00" from="J11J10" to="F1F0"/>
    <trip id="3h29" depart="10876.00" from="F11F10" to="H10H11"/>
    <trip id="3h30" depart="10879.00" from="A1B1" to="I8I9"/>
    <trip id="3h31" depart="10882.00" from="J1K1" to="K5L5"/>
    <trip id="3h32" depart="10889.00" from="F11F10" to="F1F0"/>
    <trip id="3h33" depart="10890.00" from="L3K3" to="H10H11"/>
    <trip id="3h34" depart="10892.00" from="C9D9" to="F1F0"/>
    <trip id="3h35" depart="10894.00" from="J11J10" to="B7A7"/>
    <trip id="3h36" depart="10895.00" from="L3K3" to="B3A3"/>
    <trip id="3h37" depart="10895.00" from="A1B1" to="K1L1"/>
    <trip id="3h38" depart="10904.00" from="L7K7" to="K5L5"/>
    <trip id="3h39" depart="10905.00" from="L3K3" to="H10H11"/>
    <trip id="3h40" depart="10905.00" from="J11J10" to="B7A7"/>
    <trip id="3h41" depart="10908.00" from="B11B10" to="B7A7"/>
    <trip id="3h42" depart="10909.00" from="J11J10" to="B5B4"/>
    <trip id="3h43" depart="10909.00" from="L7K7" to="K5L5"/>
    <trip id="3h44" depart="10910.00" from="B11B10" to="K1L1"/>
    <trip id="3h45" depart="10923.00" from="B11B10" to="K1L1"/>
    <trip id="3h46" depart="10928.00" from="A1B1" to="G1H1"/>
    <trip id="3h47" depart="10928.00" from="L7K7" to="K5L5"/>
    <trip id="3h48" depart="10929.00" from="A1B1" to="B7A7"/>
    <trip id="3h49" depart="10931.00" from="F11F10" to="B7A7"/>
    <trip id="3h50" depart="10932.00" from="J11J10" to="D10D11"/>
    <trip id="3h51" depart="10935.00" from="L7K7" to="G8F8"/>
    <trip id="3h52" depart="10940.00" from="A1B1" to="K1L1"/>
    <trip id="3h53" depart="10945.00" from="F11F10" to="D10D11"/>
    <trip id="3h54" depart="10950.00" from="A1B1" to="J1J0"/>
    <trip id="3h55" depart="10954.00" from="L7K7" to="G3G2"/>
    <trip id="3h56" depart="10960.00" from="E3E2" to="K9L9"/>
    <trip id="3h57" depart="10962.00" from="L7K7" to="B3A3"/>
    <trip id="3h58" depart="10962.00" from="B11B10" to="B3A3"/>
    <trip id="3h59" depart="10968.00" from="F11F10" to="K9L9"/>
    <trip id="3h60" depart="10971.00" from="F11F10" to="B3A3"/>
    <trip id="3h61" depart="10975.00" from="H0H1" to="J1J0"/>
    <trip id="3h62" depart="10981.00" from="D0D1" to="K1L1"/>
    <trip id="3h63" depart="10983.00" from="A1B1" to="D10D11"/>
    <trip id="3h64" depart="10985.00" from="A9B9" to="B3A3"/>
    <trip id="3h65" depart="10985.00" from="G6H6" to="J1J0"/>
    <trip id="3h66" depart="10991.00" from="L7K7" to="K9L9"/>
    <trip id="3h67" depart="10996.00" from="L3K3" to="K9L9"/>
    <trip id="3h68" depart="10997.00" from="F11F10" to="D2D3"/>
    <trip id="3h69" depart="10998.00" from="F11F10" to="B1B0"/>
    <trip id="3h70" depart="10998.00" from="J6J5" to="J1J0"/>
    <trip id="3h71" depart="11001.00" from="A9B9" to="F9G9"/>
    <trip id="3h72" depart="11002.00" from="L7K7" to="D10D11"/>
    <trip id="3h73" depart="11005.00" from="B11B10" to="K9L9"/>
    <trip id="3h74" depart="11007.00" from="B11B10" to="D10D11"/>
    <trip id="3h75" depart="11008.00" from="C1D1" to="B3A3"/>
    <trip id="3h76" depart="11017.00" from="B11B10" to="G5H5"/>
    <trip id="3h77" depart="11018.00" from="A5B5" to="F1F0"/>
    <trip id="3h78" depart="11021.00" from="H0H1" to="B7A7"/>
    <trip id="3h79" depart="11026.00" from="A5B5" to="K1L1"/>
    <trip id="3h80" depart="11027.00" from="J11J10" to="D10D11"/>
    <trip id="3h81" depart="11029.00" from="J10J9" to="H10H11"/>
    <trip id="3h82" depart="11035.00" from="J11J10" to="J9J8"/>
    <trip id="3h83" depart="11037.00" from="L7K7" to="B7A7"/>
    <trip id="3h84" depart="11039.00" from="E4E5" to="B3A3"/>
    <trip id="3h85" depart="11039.00" from="H4I4" to="K1L1"/>
    <trip id="3h86" depart="11041.00" from="H0H1" to="F1F0"/>
    <trip id="3h87" depart="11046.00" from="A1B1" to="B7A7"/>
    <trip id="3h88" depart="11046.00" from="A1B1" to="K1L1"/>
    <trip id="3h89" depart="11050.00" from="J2J1" to="C3C2"/>
    <trip id="3h90" depart="11055.00" from="A9B9" to="H10H11"/>
    <trip id="3h91" depart="11056.00" from="D0D1" to="B7A7"/>
    <trip id="3h92" depart="11057.00" from="H0H1" to="K5L5"/>
    <trip id="3h93" depart="11062.00" from="L3K3" to="D10D11"/>
    <trip id="3h94" depart="11062.00" from="D0D1" to="F1F0"/>
    <trip id="3h95" depart="11063.00" from="L3K3" to="K9L9"/>
    <trip id="3h96" depart="11064.00" from="A1B1" to="K5L5"/>
    <trip id="3h97" depart="11065.00" from="H0H1" to="B3A3"/>
    <trip id="3h98" depart="11066.00" from="H0H1" to="B7A7"/>
    <trip id="3h99" depart="11071.00" from="H8H9" to="K9L9"/>
    <trip id="3h100" depart="11072.00" from="L7K7" to="B7A7"/>
    <trip id="3h101" depart="11073.00" from="G1G2" to="K9L9"/>
    <trip id="3h102" depart="11076.00" from="G8H8" to="K9L9"/>
    <trip id="3h103" depart="11078.00" from="D0D1" to="J9J8"/>
    <trip id="3h104" depart="11081.00" from="L7K7" to="B3A3"/>
    <trip id="3h105" depart="11083.00" from="A9B9" to="D10D11"/>
    <trip id="3h106" depart="11091.00" from="B11B10" to="B3A3"/>
    <trip id="3h107" depart="11092.00" from="L3K3" to="D10D11"/>
    <trip id="3h108" depart="11092.00" from="J8J7" to="D10D11"/>
    <trip id="3h109" depart="11095.00" from="A9B9" to="K5L5"/>
    <trip id="3h110" depart="11096.00" from="D0D1" to="H10H11"/>
    <trip id="3h111" depart="11098.00" from="J11J10" to="K1L1"/>
    <trip id="3h112" depart="11098.00" from="L3K3" to="J1J0"/>
    <trip id="3h113" depart="11098.00" from="A9B9" to="K1L1"/>
    <trip id="3h114" depart="11102.00" from="I3H3" to="H10H11"/>
    <trip id="3h115" depart="11108.00" from="B11B10" to="K1L1"/>
    <trip id="3h116" depart="11109.00" from="A9B9" to="D2D3"/>
    <trip id="3h117" depart="11109.00" from="B11B10" to="K5L5"/>
    <trip id="3h118" depart="11112.00" from="L3K3" to="B7A7"/>
    <trip id="3h119" depart="11113.00" from="H0H1" to="F1F0"/>
    <trip id="3h120" depart="11116.00" from="F11F10" to="B7A7"/>
    <trip id="3h121" depart="11116.00" from="H0H1" to="K5L5"/>
    <trip id="3h122" depart="11117.00" from="B11B10" to="K1L1"/>
    <trip id="3h123" depart="11121.00" from="H0H1" to="K5L5"/>
    <trip id="3h124" depart="11126.00" from="A5B5" to="H10H11"/>
    <trip id="3h125" depart="11137.00" from="A5B5" to="J1J0"/>
    <trip id="3h126" depart="11138.00" from="J7I7" to="B3A3"/>
    <trip id="3h127" depart="11140.00" from="A9B9" to="I2H2"/>
    <trip id="3h128" depart="11145.00" from="H0H1" to="F1F0"/>
    <trip id="3h129" depart="11148.00" from="A1B1" to="J1J0"/>
    <trip id="3h130" depart="11150.00" from="H0H1" to="H10H11"/>
    <trip id="3h131" depart="11153.00" from="G6F6" to="H10H11"/>
    <trip id="3h132" depart="11158.00" from="A9B9" to="B7A7"/>
    <trip id="3h133" depart="11160.00" from="F11F10" to="B1B0"/>
    <trip id="3h134" depart="11168.00" from="A1B1" to="H10H11"/>
    <trip id="3h135" depart="11168.00" from="F2E2" to="B1B0"/>
    <trip id="3h136" depart="11169.00" from="J11J10" to="J1J0"/>
    <trip id="3h137" depart="11172.00" from="J11J10" to="G2F2"/>
    <trip id="3h138" depart="11175.00" from="H0H1" to="J1J0"/>
    <trip id="3h139" depart="11179.00" from="A5B5" to="B3A3"/>
    <trip id="3h140" depart="11179.00" from="D0D1" to="K9L9"/>
    <trip id="3h141" depart="11181.00" from="G7G6" to="G8F8"/>
    <trip id="3h142" depart="11181.00" from="A9B9" to="B10B9"/>
    <trip id="3h143" depart="11185.00" from="A5B5" to="B1B0"/>
    <trip id="3h144" depart="11186.00" from="L3K3" to="B7A7"/>
    <trip id="3h145" depart="11191.00" from="A9B9" to="H10H11"/>
    <trip id="3h146" depart="11196.00" from="A5B5" to="K5L5"/>
    <trip id="3h147" depart="11200.00" from="J11J10" to="J1J0"/>
    <trip id="3h148" depart="11201.00" from="D0D1" to="K1L1"/>
    <trip id="3h149" depart="11202.00" from="H0H1" to="K5L5"/>
    <trip id="3h150" depart="11205.00" from="J7J6" to="K5L5"/>
    <trip id="3h151" depart="11205.00" from="L7K7" to="K9L9"/>
    <trip id="3h152" depart="11205.00" from="D0D1" to="D10D11"/>
    <trip id="3h153" depart="11205.00" from="D0D1" to="F1F0"/>
    <trip id="3h154" depart="11208.00" from="A1B1" to="H10H11"/>
    <trip id="3h155" depart="11211.00" from="D4D5" to="K1L1"/>
    <trip id="3h156" depart="11213.00" from="A1B1" to="K1L1"/>
    <trip id="3h157" depart="11218.00" from="H0H1" to="D6D7"/>
    <trip id="3h158" depart="11218.00" from="L3K3" to="K1L1"/>
    <trip id="3h159" depart="11222.00" from="A1B1" to="D10D11"/>
    <trip id="3h160" depart="11228.00" from="K3J3" to="J1J0"/>
    <trip id="3h161" depart="11228.00" from="C2D2" to="B3A3"/>
    <trip id="3h162" depart="11231.00" from="J11J10" to="D8E8"/>
    <trip id="3h163" depart="11232.00" from="F11F10" to="B3A3"/>
    <trip id="3h164" depart="11235.00" from="B11B10" to="K9L9"/>
    <trip id="3h165" depart="11237.00" from="H3H4" to="B3A3"/>
    <trip id="3h166" depart="11237.00" from="A9B9" to="H10H11"/>
    <trip id="3h167" depart="11238.00" from="F8F7" to="J1J0"/>
    <trip id="3h168" depart="11239.00" from="D0D1" to="C3B3"/>
    <trip id="3h169" depart="11239.00" from="L3K3" to="J1J0"/>
    <trip id="3h170" depart="11241.00" from="A9B9" to="H10H11"/>
    <trip id="3h171" depart="11242.00" from="F11F10" to="C7C6"/>
    <trip id="3h172" depart="11249.00" from="J11J10" to="B1B0"/>
    <trip id="3h173" depart="11250.00" from="J11J10" to="D7C7"/>
    <trip id="3h174" depart="11258.00" from="L3K3" to="B7A7"/>
    <trip id="3h175" depart="11260.00" from="L3K3" to="J1J0"/>
    <trip id="3h176" depart="11265.00" from="A1B1" to="I5J5"/>
    <trip id="3h177" depart="11266.00" from="A9B9" to="C8B8"/>
    <trip id="3h178" depart="11267.00" from="H0H1" to="D10D11"/>
    <trip id="3h179" depart="11267.00" from="A9B9" to="D10D11"/>
    <trip id="3h180" depart="11270.00" from="L7K7" to="I6H6"/>
    <trip id="3h181" depart="11270.00" from="D0D1" to="F8E8"/>
    <trip id="3h182" depart="11272.00" from="E8E9" to="G10F10"/>
    <trip id="3h183" depart="11273.00" from="L7K7" to="J1J0"/>
    <trip id="3h184" depart="11275.00" from="H0H1" to="G7G6"/>
    <trip id="3h185" depart="11280.00" from="E4E3" to="D10D11"/>
    <trip id="3h186" depart="11285.00" from="A5B5" to="B3A3"/>
    <trip id="3h187" depart="11287.00" from="L7K7" to="F1F0"/>
    <trip id="3h188" depart="11290.00" from="J11J10" to="F2E2"/>
    <trip id="3h189" depart="11295.00" from="L7K7" to="K1L1"/>
    <trip id="3h190" depart="11297.00" from="A5B5" to="B4B3"/>
    <trip id="3h191" depart="11301.00" from="L7K7" to="F1F0"/>
    <trip id="3h192" depart="11301.00" from="L7K7" to="J1J0"/>
    <trip id="3h193" depart="11303.00" from="A5B5" to="B3A3"/>
    <trip id="3h194" depart="11304.00" from="A5B5" to="K9L9"/>
    <trip id="3h195" depart="11311.00" from="L7K7" to="K1L1"/>
    <trip id="3h196" depart="11312.00" from="D0D1" to="B7A7"/>
    <trip id="3h197" depart="11314.00" from="A1B1" to="K1L1"/>
    <trip id="3h198" depart="11315.00" from="A5B5" to="J1J0"/>
    <trip id="3h199" depart="11319.00" from="A5B5" to="K5L5"/>
    <trip id="3h200" depart="11320.00" from="F11F10" to="B1B0"/>
    <trip id="3h201" depart="11321.00" from="A9B9" to="F9G9"/>
    <trip id="3h202" depart="11322.00" from="A9B9" to="B3A3"/>
    <trip id="3h203" depart="11330.00" from="L7K7" to="B1B0"/>
    <trip id="3h204" depart="11331.00" from="F11F10" to="F1F0"/>
    <trip id="3h205" depart="11331.00" from="J11J10" to="K9L9"/>
    <trip id="3h206" depart="11332.00" from="D0D1" to="K1L1"/>
    <trip id="3h207" depart="11333.00" from="D0D1" to="C2D2"/>
    <trip id="3h208" depart="11344.00" from="B11B10" to="B3A3"/>
    <trip id="3h209" depart="11344.00" from="B11B10" to="D10D11"/>
    <trip id="3h210" depart="11345.00" from="J11J10" to="K9L9"/>
    <trip id="3h211" depart="11348.00" from="F11F10" to="F1F0"/>
    <trip id="3h212" depart="11354.00" from="A1B1" to="B7A7"/>
    <trip id="3h213" depart="11359.00" from="F11F10" to="D2D3"/>
    <trip id="3h214" depart="11362.00" from="J7I7" to="B7A7"/>
    <trip id="3h215" depart="11366.00" from="A9B9" to="B7A7"/>
    <trip id="3h216" depart="11369.00" from="B11B10" to="B3A3"/>
    <trip id="3h217" depart="11376.00" from="D0D1" to="K9L9"/>
    <trip id="3h218" depart="11377.00" from="F11F10" to="K5L5"/>
    <trip id="3h219" depart="11379.00" from="A1B1" to="K5L5"/>
    <trip id="3h220" depart="11379.00" from="L3K3" to="D10D11"/>
    <trip id="3h221" depart="11380.00" from="B11B10" to="F1F0"/>
    <trip id="3h222" depart="11386.00" from="H9I9" to="K5L5"/>
    <trip id="3h223" depart="11389.00" from="A5B5" to="B3A3"/>
    <trip id="3h224" depart="11390.00" from="L3K3" to="B1B0"/>
    <trip id="3h225" depart="11395.00" from="L7K7" to="H1I1"/>
    <trip id="3h226" depart="11398.00" from="L3K3" to="K4J4"/>
    <trip id="3h227" depart="11399.00" from="A1B1" to="J1J0"/>
    <trip id="3h228" depart="11407.00" from="A5B5" to="D10D11"/>
    <trip id="3h229" depart="11413.00" from="B11B10" to="J1J0"/>
    <trip id="3h230" depart="11413.00" from="C3B3" to="J1J0"/>
    <trip id="3h231" depart="11415.00" from="H0H1" to="J1J0"/>
    <trip id="3h232" depart="11417.00" from="L7K7" to="J1J0"/>
    <trip id="3h233" depart="11421.00" from="B11B10" to="F1F0"/>
    <trip id="3h234" depart="11426.00" from="A5B5" to="B3A3"/>
    <trip id="3h235" depart="11428.00" from="A5B5" to="B1B0"/>
    <trip id="3h236" depart="11429.00" from="A5B5" to="B3A3"/>
    <trip id="3h237" depart="11430.00" from="H0H1" to="J1J0"/>
    <trip id="3h238" depart="11433.00" from="B11B10" to="B7A7"/>
    <trip id="3h239" depart="11436.00" from="L3K3" to="D10D11"/>
    <trip id="3h240" depart="11436.00" from="A1B1" to="F1F0"/>
    <trip id="3h241" depart="11439.00" from="A5B5" to="I8I7"/>
    <trip id="3h242" depart="11442.00" from="A5B5" to="B1B0"/>
    <trip id="3h243" depart="11445.00" from="B11B10" to="H10H11"/>
    <trip id="3h244" depart="11446.00" from="B11B10" to="J4J3"/>
    <trip id="3h245" depart="11447.00" from="J11J10" to="H10H11"/>
    <trip id="3h246" depart="11455.00" from="A5B5" to="D1D2"/>
    <trip id="3h247" depart="11461.00" from="J11J10" to="B7A7"/>
    <trip id="3h248" depart="11461.00" from="D0D1" to="F1F0"/>
    <trip id="3h249" depart="11463.00" from="A1B1" to="E4E3"/>
    <trip id="3h250" depart="11467.00" from="D6D7" to="K5L5"/>
    <trip id="3h251" depart="11467.00" from="L7K7" to="F1F0"/>
    <trip id="3h252" depart="11470.00" from="H1I1" to="J1J0"/>
    <trip id="3h253" depart="11470.00" from="E4E5" to="K5L5"/>
    <trip id="3h254" depart="11471.00" from="L3K3" to="J1J0"/>
    <trip id="3h255" depart="11472.00" from="D5D6" to="K9L9"/>
    <trip id="3h256" depart="11473.00" from="B11B10" to="K9L9"/>
    <trip id="3h257" depart="11478.00" from="A9B9" to="B1B0"/>
    <trip id="3h258" depart="11479.00" from="J11J10" to="K9L9"/>
    <trip id="3h259" depart="11481.00" from="B11B10" to="K5L5"/>
    <trip id="3h260" depart="11483.00" from="D0D1" to="K1L1"/>
    <trip id="3h261" depart="11486.00" from="G1G2" to="J1J0"/>
    <trip id="3h262" depart="11489.00" from="A9B9" to="B7A7"/>
    <trip id="3h263" depart="11490.00" from="A5B5" to="D10D11"/>
    <trip id="3h264" depart="11491.00" from="A9B9" to="B4B3"/>
    <trip id="3h265" depart="11491.00" from="L3K3" to="K6J6"/>
    <trip id="3h266" depart="11491.00" from="H0H1" to="D6D7"/>
    <trip id="3h267" depart="11497.00" from="A9B9" to="B7A7"/>
    <trip id="3h268" depart="11500.00" from="A9B9" to="B7A7"/>
    <trip id="3h269" depart="11501.00" from="B11B10" to="K3J3"/>
    <trip id="3h270" depart="11505.00" from="J4J3" to="K5L5"/>
    <trip id="3h271" depart="11505.00" from="J11J10" to="K9L9"/>
    <trip id="3h272" depart="11507.00" from="H0H1" to="F3E3"/>
    <trip id="3h273" depart="11510.00" from="A5B5" to="B1B0"/>
    <trip id="3h274" depart="11516.00" from="A5B5" to="K9L9"/>
    <trip id="3h275" depart="11517.00" from="A5B5" to="D10D11"/>
    <trip id="3h276" depart="11518.00" from="H0H1" to="B7A7"/>
    <trip id="3h277" depart="11519.00" from="J11J10" to="K1L1"/>
    <trip id="3h278" depart="11527.00" from="L7K7" to="H10H11"/>
    <trip id="3h279" depart="11528.00" from="L3K3" to="D10D11"/>
    <trip id="3h280" depart="11529.00" from="L3K3" to="B1B0"/>
    <trip id="3h281" depart="11532.00" from="D0D1" to="K5L5"/>
    <trip id="3h282" depart="11534.00" from="F11F10" to="J5J4"/>
    <trip id="3h283" depart="11535.00" from="L7K7" to="E10E9"/>
    <trip id="3h284" depart="11537.00" from="J6I6" to="I8I9"/>
    <trip id="3h285" depart="11538.00" from="J11J10" to="J1J0"/>
    <trip id="3h286" depart="11541.00" from="A1B1" to="J1J0"/>
    <trip id="3h287" depart="11544.00" from="F8E8" to="K9L9"/>
    <trip id="3h288" depart="11544.00" from="G9G10" to="K9L9"/>
    <trip id="3h289" depart="11548.00" from="C5C4" to="B1B0"/>
    <trip id="3h290" depart="11556.00" from="A1B1" to="H10H11"/>
    <trip id="3h291" depart="11563.00" from="J11J10" to="H10H11"/>
    <trip id="3h292" depart="11565.00" from="A9B9" to="F3E3"/>
    <trip id="3h293" depart="11567.00" from="F2F1" to="H10H11"/>
    <trip id="3h294" depart="11568.00" from="F11F10" to="H10H11"/>
    <trip id="3h295" depart="11571.00" from="L7K7" to="G3G4"/>
    <trip id="3h296" depart="11571.00" from="B11B10" to="K9L9"/>
    <trip id="3h297" depart="11576.00" from="G9G8" to="B1B0"/>
    <trip id="3h298" depart="11577.00" from="D0D1" to="K9L9"/>
    <trip id="3h299" depart="11580.00" from="F11F10" to="B3A3"/>
    <trip id="3h300" depart="11588.00" from="D5D6" to="H9I9"/>
    <trip id="3h301" depart="11589.00" from="L3K3" to="B7A7"/>
    <trip id="3h302" depart="11592.00" from="D0D1" to="K1L1"/>
    <trip id="3h303" depart="11594.00" from="A5B5" to="G10F10"/>
    <trip id="3h304" depart="11597.00" from="L7K7" to="K9L9"/>
    <trip id="3h305" depart="11599.00" from="A1B1" to="K1L1"/>
    <trip id="3h306" depart="11600.00" from="F11F10" to="K5L5"/>
    <trip id="3h307" depart="11604.00" from="G7G6" to="J1J0"/>
    <trip id="3h308" depart="11607.00" from="A5B5" to="K5L5"/>
    <trip id="3h309" depart="11608.00" from="B6B5" to="H1H2"/>
    <trip id="3h310" depart="11613.00" from="A5B5" to="B7A7"/>
    <trip id="3h311" depart="11614.00" from="K7J7" to="K1L1"/>
    <trip id="3h312" depart="11615.00" from="L7K7" to="K9L9"/>
    <trip id="3h313" depart="11617.00" from="D0D1" to="B3A3"/>
    <trip id="3h314" depart="11621.00" from="L7K7" to="B3A3"/>
    <trip id="3h315" depart="11624.00" from="L7K7" to="B1B0"/>
    <trip id="3h316" depart="11626.00" from="L7K7" to="D1D2"/>
    <trip id="3h317" depart="11627.00" from="C7C6" to="B1B0"/>
    <trip id="3h318" depart="11629.00" from="J11J10" to="G2F2"/>
    <trip id="3h319" depart="11629.00" from="L3K3" to="J1J0"/>
    <trip id="3h320" depart="11632.00" from="B11B10" to="H10H11"/>
    <trip id="3h321" depart="11633.00" from="B11B10" to="K9L9"/>
    <trip id="3h322" depart="11633.00" from="C3B3" to="C8B8"/>
    <trip id="3h323" depart="11641.00" from="L3K3" to="F1F0"/>
    <trip id="3h324" depart="11642.00" from="L3K3" to="D10D11"/>
    <trip id="3h325" depart="11645.00" from="A5B5" to="F1F0"/>
    <trip id="3h326" depart="11645.00" from="G8F8" to="D7C7"/>
    <trip id="3h327" depart="11649.00" from="J11J10" to="H10H11"/>
    <trip id="3h328" depart="11650.00" from="D0D1" to="K5L5"/>
    <trip id="3h329" depart="11652.00" from="J6J5" to="B1B0"/>
    <trip id="3h330" depart="11656.00" from="B11B10" to="F1F0"/>
    <trip id="3h331" depart="11657.00" from="D0D1" to="B7A7"/>
    <trip id="3h332" depart="11658.00" from="A5B5" to="D3C3"/>
    <trip id="3h333" depart="11662.00" from="I3H3" to="K9L9"/>
    <trip id="3h334" depart="11665.00" from="A1B1" to="K9L9"/>
    <trip id="3h335" depart="11666.00" from="A9B9" to="H10H11"/>
    <trip id="3h336" depart="11666.00" from="L7K7" to="K9L9"/>
    <trip id="3h337" depart="11667.00" from="A1B1" to="G6F6"/>
    <trip id="3h338" depart="11671.00" from="F11F10" to="H10H11"/>
    <trip id="3h339" depart="11672.00" from="A9B9" to="D10D11"/>
    <trip id="3h340" depart="11673.00" from="B11B10" to="F1F0"/>
    <trip id="3h341" depart="11676.00" from="H0H1" to="B1B0"/>
    <trip id="3h342" depart="11678.00" from="A1B1" to="B1B0"/>
    <trip id="3h343" depart="11683.00" from="A9B9" to="K1L1"/>
    <trip id="3h344" depart="11686.00" from="H0H1" to="F1F0"/>
    <trip id="3h345" depart="11689.00" from="B11B10" to="B1B0"/>
    <trip id="3h346" depart="11692.00" from="E3E2" to="D10D11"/>
    <trip id="3h347" depart="11695.00" from="C1C2" to="J1J0"/>
    <trip id="3h348" depart="11695.00" from="L7K7" to="K5L5"/>
    <trip id="3h349" depart="11698.00" from="F11F10" to="D10D11"/>
    <trip id="3h350" depart="11700.00" from="A1B1" to="C8D8"/>
    <trip id="3h351" depart="11700.00" from="A9B9" to="D10D11"/>
    <trip id="3h352" depart="11705.00" from="F11F10" to="K9L9"/>
    <trip id="3h353" depart="11707.00" from="J3I3" to="K5L5"/>
    <trip id="3h354" depart="11709.00" from="F10F9" to="J1J0"/>
    <trip id="3h355" depart="11709.00" from="G9G8" to="B3A3"/>
    <trip id="3h356" depart="11713.00" from="D1D2" to="H10H11"/>
    <trip id="3h357" depart="11713.00" from="B11B10" to="J1J0"/>
    <trip id="3h358" depart="11727.00" from="B11B10" to="B7A7"/>
    <trip id="3h359" depart="11728.00" from="L7K7" to="K9L9"/>
    <trip id="3h360" depart="11729.00" from="A1B1" to="G4F4"/>
    <trip id="3h361" depart="11729.00" from="A1B1" to="K1L1"/>
    <trip id="3h362" depart="11732.00" from="J11J10" to="K1L1"/>
    <trip id="3h363" depart="11737.00" from="B11B10" to="D9E9"/>
    <trip id="3h364" depart="11739.00" from="H0H1" to="K5L5"/>
    <trip id="3h365" depart="11742.00" from="J11J10" to="K9L9"/>
    <trip id="3h366" depart="11746.00" from="H0H1" to="K5L5"/>
    <trip id="3h367" depart="11746.00" from="I9J9" to="B1B0"/>
    <trip id="3h368" depart="11749.00" from="H0H1" to="K1L1"/>
    <trip id="3h369" depart="11750.00" from="J11J10" to="D7D8"/>
    <trip id="3h370" depart="11756.00" from="A5B5" to="B7B6"/>
    <trip id="3h371" depart="11756.00" from="D0D1" to="J1J0"/>
    <trip id="3h372" depart="11764.00" from="L3K3" to="K9L9"/>
    <trip id="3h373" depart="11764.00" from="L3K3" to="B1B0"/>
    <trip id="3h374" depart="11768.00" from="H0H1" to="B1B0"/>
    <trip id="3h375" depart="11769.00" from="A1B1" to="H10H11"/>
    <trip id="3h376" depart="11776.00" from="J11J10" to="K1L1"/>
    <trip id="3h377" depart="11778.00" from="A1B1" to="K9L9"/>
    <trip id="3h378" depart="11780.00" from="L3K3" to="H10H11"/>
    <trip id="3h379" depart="11781.00" from="B11B10" to="B7A7"/>
    <trip id="3h380" depart="11782.00" from="F11F10" to="E6E5"/>
    <trip id="3h381" depart="11785.00" from="H1H2" to="K1L1"/>
    <trip id="3h382" depart="11787.00" from="D0D1" to="B3A3"/>
    <trip id="3h383" depart="11790.00" from="D0D1" to="B3A3"/>
    <trip id="3h384" depart="11798.00" from="C7C6" to="F1F0"/>
    <trip id="3h385" depart="11799.00" from="D0D1" to="H10H11"/>
    <trip id="3h386" depart="11799.00" from="B11B10" to="B3A3"/>
    <trip id="3h387" depart="11800.00" from="B11B10" to="F1F0"/>
    <trip id="3h388" depart="11801.00" from="A1B1" to="K5L5"/>
    <trip id="3h389" depart="11803.00" from="L3K3" to="K5L5"/>
    <trip id="3h390" depart="11805.00" from="B11B10" to="D10D11"/>
    <trip id="3h391" depart="11810.00" from="L3K3" to="E1F1"/>
    <trip id="3h392" depart="11811.00" from="A5B5" to="J1J0"/>
    <trip id="3h393" depart="11812.00" from="H8H9" to="I7I6"/>
    <trip id="3h394" depart="11812.00" from="D0D1" to="D10D11"/>
    <trip id="3h395" depart="11813.00" from="J4I4" to="F1F0"/>
    <trip id="3h396" depart="11815.00" from="F11F10" to="K9L9"/>
    <trip id="3h397" depart="11816.00" from="A5B5" to="K5L5"/>
    <trip id="3h398" depart="11822.00" from="L7K7" to="F1F0"/>
    <trip id="3h399" depart="11823.00" from="B11B10" to="H10H11"/>
    <trip id="3h400" depart="11827.00" from="B11B10" to="J1J0"/>
    <trip id="3h401" depart="11828.00" from="J11J10" to="B7A7"/>
    <trip id="3h402" depart="11830.00" from="L7K7" to="B7A7"/>
    <trip id="3h403" depart="11833.00" from="D0D1" to="B3A3"/>
    <trip id="3h404" depart="11833.00" from="B11B10" to="B1B0"/>
    <trip id="3h405" depart="11834.00" from="B11B10" to="D10D11"/>
    <trip id="3h406" depart="11835.00" from="L3K3" to="K9L9"/>
    <trip id="3h407" depart="11836.00" from="H0H1" to="B3A3"/>
    <trip id="3h408" depart="11837.00" from="L7K7" to="H10H11"/>
    <trip id="3h409" depart="11846.00" from="A1B1" to="J1J0"/>
    <trip id="3h410" depart="11847.00" from="E7E6" to="J5J4"/>
    <trip id="3h411" depart="11852.00" from="A9B9" to="D10D11"/>
    <trip id="3h412" depart="11854.00" from="L7K7" to="D10D11"/>
    <trip id="3h413" depart="11858.00" from="H0H1" to="H10H11"/>
    <trip id="3h414" depart="11861.00" from="J11J10" to="H10H11"/>
    <trip id="3h415" depart="11868.00" from="I10I9" to="B7A7"/>
    <trip id="3h416" depart="11873.00" from="J11J10" to="B1B0"/>
    <trip id="3h417" depart="11875.00" from="A5B5" to="F1F0"/>
    <trip id="3h418" depart="11875.00" from="D0D1" to="B1B0"/>
    <trip id="3h419" depart="11879.00" from="F3F2" to="B1B0"/>
    <trip id="3h420" depart="11879.00" from="A9B9" to="F1F0"/>
    <trip id="3h421" depart="11880.00" from="G8H8" to="K5L5"/>
    <trip id="3h422" depart="11885.00" from="J11J10" to="F1F0"/>
    <trip id="3h423" depart="11890.00" from="L3K3" to="K9K10"/>
    <trip id="3h424" depart="11891.00" from="L3K3" to="B3A3"/>
    <trip id="3h425" depart="11895.00" from="L3K3" to="E10E9"/>
    <trip id="3h426" depart="11896.00" from="J11J10" to="B3A3"/>
    <trip id="3h427" depart="11901.00" from="J11J10" to="D10D11"/>
    <trip id="3h428" depart="11904.00" from="A9B9" to="H10H11"/>
    <trip id="3h429" depart="11907.00" from="A5B5" to="D10D11"/>
    <trip id="3h430" depart="11915.00" from="F11F10" to="B1B0"/>
    <trip id="3h431" depart="11923.00" from="F11F10" to="J1J0"/>
    <trip id="3h432" depart="11923.00" from="A9B9" to="B1B0"/>
    <trip id="3h433" depart="11931.00" from="H0H1" to="J1J0"/>
    <trip id="3h434" depart="11935.00" from="H0H1" to="K9L9"/>
    <trip id="3h435" depart="11936.00" from="D0D1" to="B1B0"/>
    <trip id="3h436" depart="11938.00" from="A1B1" to="H10H11"/>
    <trip id="3h437" depart="11943.00" from="A5B5" to="H10H11"/>
    <trip id="3h438" depart="11944.00" from="L7K7" to="D10D11"/>
    <trip id="3h439" depart="11946.00" from="L7K7" to="B7A7"/>
    <trip id="3h440" depart="11947.00" from="A9B9" to="K1L1"/>
    <trip id="3h441" depart="11954.00" from="L7K7" to="K1L1"/>
    <trip id="3h442" depart="11961.00" from="J1K1" to="B3A3"/>
    <trip id="3h443" depart="11968.00" from="L3K3" to="B1B0"/>
    <trip id="3h444" depart="11971.00" from="H0H1" to="K1L1"/>
    <trip id="3h445" depart="11974.00" from="L3K3" to="F1F0"/>
    <trip id="3h446" depart="11975.00" from="J11J10" to="K1L1"/>
    <trip id="3h447" depart="11976.00" from="D0D1" to="K5L5"/>
    <trip id="3h448" depart="11976.00" from="H0H1" to="J1J0"/>
    <trip id="3h449" depart="11979.00" from="A1B1" to="K1L1"/>
    <trip id="3h450" depart="11981.00" from="J11J10" to="B7A7"/>
    <trip id="3h451" depart="11982.00" from="A9B9" to="B7A7"/>
    <trip id="3h452" depart="11986.00" from="J11J10" to="B3A3"/>
    <trip id="3h453" depart="11989.00" from="A5B5" to="D10D11"/>
    <trip id="3h454" depart="11989.00" from="J11J10" to="J1J0"/>
    <trip id="3h455" depart="11990.00" from="D0D1" to="D10D11"/>
    <trip id="3h456" depart="11992.00" from="B11B10" to="B3A3"/>
    <trip id="3h457" depart="11996.00" from="F11F10" to="B3A3"/>
    <trip id="3h458" depart="12000.00" from="B11B10" to="B3A3"/>
    <trip id="3h459" depart="12000.00" from="H0H1" to="K1L1"/>
    <trip id="3h460" depart="12003.00" from="B11B10" to="H10H11"/>
    <trip id="3h461" depart="12007.00" from="J11J10" to="F5F4"/>
    <trip id="3h462" depart="12007.00" from="G3F3" to="B7A7"/>