<?xml version="1.0" encoding="UTF-8"?>
<!-- generated on 2020-12-09 03:18:30.333459 by randomTrips.py v1_7_0+0000-714814baed
  options: -n .\data/grid01-bcn_10.net.xml <doubleminus>prefix=0h <doubleminus>fringe-factor 100 -b 0 -e 3600 -p5.247813411078718 <doubleminus>binomial 10 -odata/random/random_h_0-bcn_10.trips.rou.xml <doubleminus>edge-permission=passenger
-->
<routes xmlns:xsi="http://www.w3.org/2001/XMLSchema-instance" xsi:noNamespaceSchemaLocation="http://sumo.dlr.de/xsd/routes_file.xsd">
    <trip id="0h0" depart="1.00" from="J2I2" to="J1J0"/>
    <trip id="0h1" depart="9.00" from="J11J10" to="J1J0"/>
    <trip id="0h2" depart="12.00" from="B11B10" to="B1B0"/>
    <trip id="0h3" depart="26.00" from="J8J7" to="D10D11"/>
    <trip id="0h4" depart="28.00" from="J11J10" to="J1J0"/>
    <trip id="0h5" depart="28.00" from="A1B1" to="K5L5"/>
    <trip id="0h6" depart="35.00" from="L7K7" to="H10H11"/>
    <trip id="0h7" depart="38.00" from="B11B10" to="F1F0"/>
    <trip id="0h8" depart="41.00" from="J11J10" to="K1L1"/>
    <trip id="0h9" depart="46.00" from="C10B10" to="K1L1"/>
    <trip id="0h10" depart="57.00" from="L7K7" to="B1B0"/>
    <trip id="0h11" depart="61.00" from="F11F10" to="C4D4"/>
    <trip id="0h12" depart="66.00" from="D0D1" to="H10H11"/>
    <trip id="0h13" depart="85.00" from="J1K1" to="K5L5"/>
    <trip id="0h14" depart="92.00" from="F11F10" to="F1F0"/>
    <trip id="0h15" depart="99.00" from="L3K3" to="B3A3"/>
    <trip id="0h16" depart="100.00" from="J11J10" to="B7A7"/>
    <trip id="0h17" depart="109.00" from="L3K3" to="H10H11"/>
    <trip id="0h18" depart="113.00" from="B11B10" to="B7A7"/>
    <trip id="0h19" depart="113.00" from="J11J10" to="B5B4"/>
    <trip id="0h20" depart="114.00" from="L7K7" to="K5L5"/>
    <trip id="0h21" depart="134.00" from="A1B1" to="B7A7"/>
    <trip id="0h22" depart="136.00" from="F11F10" to="B7A7"/>
    <trip id="0h23" depart="138.00" from="J11J10" to="D10D11"/>
    <trip id="0h24" depart="169.00" from="B11B10" to="B3A3"/>
    <trip id="0h25" depart="175.00" from="F11F10" to="K9L9"/>
    <trip id="0h26" depart="178.00" from="F11F10" to="B3A3"/>
    <trip id="0h27" depart="182.00" from="H0H1" to="J1J0"/>
    <trip id="0h28" depart="190.00" from="A1B1" to="D10D11"/>
    <trip id="0h29" depart="192.00" from="A9B9" to="B3A3"/>
    <trip id="0h30" depart="199.00" from="L7K7" to="K9L9"/>
    <trip id="0h31" depart="205.00" from="F11F10" to="D2D3"/>
    <trip id="0h32" depart="205.00" from="F11F10" to="B1B0"/>
    <trip id="0h33" depart="206.00" from="J6J5" to="J1J0"/>
    <trip id="0h34" depart="208.00" from="A9B9" to="F9G9"/>
    <trip id="0h35" depart="215.00" from="B11B10" to="D10D11"/>
    <trip id="0h36" depart="225.00" from="B11B10" to="G5H5"/>
    <trip id="0h37" depart="235.00" from="A5B5" to="K1L1"/>
    <trip id="0h38" depart="244.00" from="J11J10" to="J9J8"/>
    <trip id="0h39" depart="246.00" from="L7K7" to="B7A7"/>
    <trip id="0h40" depart="248.00" from="E4E5" to="B3A3"/>
    <trip id="0h41" depart="248.00" from="H4I4" to="K1L1"/>
    <trip id="0h42" depart="250.00" from="H0H1" to="F1F0"/>
    <trip id="0h43" depart="255.00" from="A1B1" to="B7A7"/>
    <trip id="0h44" depart="264.00" from="A9B9" to="H10H11"/>
    <trip id="0h45" depart="265.00" from="D0D1" to="B7A7"/>
    <trip id="0h46" depart="266.00" from="H0H1" to="K5L5"/>
    <trip id="0h47" depart="273.00" from="L3K3" to="K9L9"/>
    <trip id="0h48" depart="282.00" from="L7K7" to="B7A7"/>
    <trip id="0h49" depart="289.00" from="D0D1" to="J9J8"/>
    <trip id="0h50" depart="310.00" from="L3K3" to="J1J0"/>
    <trip id="0h51" depart="310.00" from="A9B9" to="K1L1"/>
    <trip id="0h52" depart="320.00" from="B11B10" to="K1L1"/>
    <trip id="0h53" depart="322.00" from="B11B10" to="K5L5"/>
    <trip id="0h54" depart="329.00" from="H0H1" to="K5L5"/>
    <trip id="0h55" depart="340.00" from="A5B5" to="H10H11"/>
    <trip id="0h56" depart="354.00" from="A9B9" to="I2H2"/>
    <trip id="0h57" depart="359.00" from="H0H1" to="F1F0"/>
    <trip id="0h58" depart="362.00" from="A1B1" to="J1J0"/>
    <trip id="0h59" depart="364.00" from="H0H1" to="H10H11"/>
    <trip id="0h60" depart="368.00" from="G6F6" to="H10H11"/>
    <trip id="0h61" depart="372.00" from="A9B9" to="B7A7"/>
    <trip id="0h62" depart="374.00" from="F11F10" to="B1B0"/>
    <trip id="0h63" depart="384.00" from="J11J10" to="J1J0"/>
    <trip id="0h64" depart="390.00" from="H0H1" to="J1J0"/>
    <trip id="0h65" depart="394.00" from="A5B5" to="B3A3"/>
    <trip id="0h66" depart="396.00" from="A5B5" to="K9L9"/>
    <trip id="0h67" depart="401.00" from="L3K3" to="B7A7"/>
    <trip id="0h68" depart="407.00" from="A9B9" to="H10H11"/>
    <trip id="0h69" depart="421.00" from="J7J6" to="K5L5"/>
    <trip id="0h70" depart="421.00" from="L7K7" to="K9L9"/>
    <trip id="0h71" depart="421.00" from="D0D1" to="D10D11"/>
    <trip id="0h72" depart="421.00" from="D0D1" to="F1F0"/>
    <trip id="0h73" depart="430.00" from="A1B1" to="K1L1"/>
    <trip id="0h74" depart="434.00" from="H0H1" to="D6D7"/>
    <trip id="0h75" depart="435.00" from="L3K3" to="K1L1"/>
    <trip id="0h76" depart="449.00" from="J11J10" to="D8E8"/>
    <trip id="0h77" depart="455.00" from="H3H4" to="B3A3"/>
    <trip id="0h78" depart="456.00" from="F8F7" to="J1J0"/>
    <trip id="0h79" depart="457.00" from="D0D1" to="C3B3"/>
    <trip id="0h80" depart="467.00" from="B11B10" to="F1F0"/>
    <trip id="0h81" depart="477.00" from="L3K3" to="B7A7"/>
    <trip id="0h82" depart="484.00" from="A1B1" to="I5J5"/>
    <trip id="0h83" depart="485.00" from="A9B9" to="C8B8"/>
    <trip id="0h84" depart="485.00" from="H0H1" to="D10D11"/>
    <trip id="0h85" depart="493.00" from="L7K7" to="J1J0"/>
    <trip id="0h86" depart="495.00" from="H0H1" to="G7G6"/>
    <trip id="0h87" depart="505.00" from="A5B5" to="B3A3"/>
    <trip id="0h88" depart="506.00" from="L7K7" to="F1F0"/>
    <trip id="0h89" depart="509.00" from="J11J10" to="F2E2"/>
    <trip id="0h90" depart="517.00" from="A5B5" to="B4B3"/>
    <trip id="0h91" depart="521.00" from="L7K7" to="F1F0"/>
    <trip id="0h92" depart="524.00" from="A5B5" to="B3A3"/>
    <trip id="0h93" depart="531.00" from="L7K7" to="K1L1"/>
    <trip id="0h94" depart="541.00" from="F11F10" to="B1B0"/>
    <trip id="0h95" depart="543.00" from="A9B9" to="B3A3"/>
    <trip id="0h96" depart="552.00" from="L7K7" to="B1B0"/>
    <trip id="0h97" depart="553.00" from="J11J10" to="K9L9"/>
    <trip id="0h98" depart="568.00" from="J11J10" to="K9L9"/>
    <trip id="0h99" depart="576.00" from="B11B10" to="K9L9"/>
    <trip id="0h100" depart="582.00" from="F11F10" to="D2D3"/>
    <trip id="0h101" depart="589.00" from="A9B9" to="B7A7"/>
    <trip id="0h102" depart="610.00" from="H9I9" to="K5L5"/>
    <trip id="0h103" depart="632.00" from="A5B5" to="D10D11"/>
    <trip id="0h104" depart="642.00" from="L7K7" to="J1J0"/>
    <trip id="0h105" depart="652.00" from="A5B5" to="B3A3"/>
    <trip id="0h106" depart="654.00" from="A5B5" to="B1B0"/>
    <trip id="0h107" depart="656.00" from="H0H1" to="J1J0"/>
    <trip id="0h108" depart="662.00" from="L3K3" to="D10D11"/>
    <trip id="0h109" depart="669.00" from="J2I2" to="K9L9"/>
    <trip id="0h110" depart="671.00" from="B11B10" to="H10H11"/>
    <trip id="0h111" depart="688.00" from="J11J10" to="B7A7"/>
    <trip id="0h112" depart="695.00" from="D6D7" to="K5L5"/>
    <trip id="0h113" depart="695.00" from="L7K7" to="F1F0"/>
    <trip id="0h114" depart="698.00" from="H1I1" to="J1J0"/>
    <trip id="0h115" depart="698.00" from="E4E5" to="K5L5"/>
    <trip id="0h116" depart="700.00" from="D5D6" to="K9L9"/>
    <trip id="0h117" depart="706.00" from="A9B9" to="B1B0"/>
    <trip id="0h118" depart="711.00" from="D0D1" to="K1L1"/>
    <trip id="0h119" depart="715.00" from="G1G2" to="J1J0"/>
    <trip id="0h120" depart="717.00" from="A9B9" to="B7A7"/>
    <trip id="0h121" depart="731.00" from="B11B10" to="K3J3"/>
    <trip id="0h122" depart="734.00" from="J4J3" to="K5L5"/>
    <trip id="0h123" depart="740.00" from="A5B5" to="B1B0"/>
    <trip id="0h124" depart="746.00" from="A5B5" to="K9L9"/>
    <trip id="0h125" depart="747.00" from="A5B5" to="D10D11"/>
    <trip id="0h126" depart="749.00" from="J11J10" to="K1L1"/>
    <trip id="0h127" depart="760.00" from="L3K3" to="B1B0"/>
    <trip id="0h128" depart="765.00" from="F11F10" to="J5J4"/>
    <trip id="0h129" depart="769.00" from="J11J10" to="J1J0"/>
    <trip id="0h130" depart="772.00" from="A1B1" to="J1J0"/>
    <trip id="0h131" depart="775.00" from="F8E8" to="K9L9"/>
    <trip id="0h132" depart="775.00" from="G9G10" to="K9L9"/>
    <trip id="0h133" depart="779.00" from="C5C4" to="B1B0"/>
    <trip id="0h134" depart="787.00" from="A1B1" to="H10H11"/>
    <trip id="0h135" depart="794.00" from="J11J10" to="H10H11"/>
    <trip id="0h136" depart="803.00" from="B11B10" to="K9L9"/>
    <trip id="0h137" depart="809.00" from="D0D1" to="K9L9"/>
    <trip id="0h138" depart="812.00" from="F11F10" to="B3A3"/>
    <trip id="0h139" depart="821.00" from="L3K3" to="B7A7"/>
    <trip id="0h140" depart="833.00" from="F11F10" to="K5L5"/>
    <trip id="0h141" depart="842.00" from="B6B5" to="H1H2"/>
    <trip id="0h142" depart="849.00" from="L7K7" to="K9L9"/>
    <trip id="0h143" depart="855.00" from="L7K7" to="B3A3"/>
    <trip id="0h144" depart="858.00" from="L7K7" to="B1B0"/>
    <trip id="0h145" depart="864.00" from="L3K3" to="J1J0"/>
    <trip id="0h146" depart="869.00" from="C3B3" to="C8B8"/>
    <trip id="0h147" depart="878.00" from="L3K3" to="D10D11"/>
    <trip id="0h148" depart="884.00" from="J11J10" to="H10H11"/>
    <trip id="0h149" depart="886.00" from="D0D1" to="K5L5"/>
    <trip id="0h150" depart="888.00" from="J6J5" to="B1B0"/>
    <trip id="0h151" depart="893.00" from="D0D1" to="B7A7"/>
    <trip id="0h152" depart="894.00" from="A5B5" to="D3C3"/>
    <trip id="0h153" depart="902.00" from="A9B9" to="H10H11"/>
    <trip id="0h154" depart="910.00" from="B11B10" to="F1F0"/>
    <trip id="0h155" depart="916.00" from="A5B5" to="D10D11"/>
    <trip id="0h156" depart="921.00" from="A9B9" to="K1L1"/>
    <trip id="0h157" depart="930.00" from="E3E2" to="D10D11"/>
    <trip id="0h158" depart="932.00" from="C1C2" to="J1J0"/>
    <trip id="0h159" depart="938.00" from="A1B1" to="C8D8"/>
    <trip id="0h160" depart="939.00" from="A9B9" to="D10D11"/>
    <trip id="0h161" depart="945.00" from="J3I3" to="K5L5"/>
    <trip id="0h162" depart="948.00" from="F10F9" to="J1J0"/>
    <trip id="0h163" depart="948.00" from="G9G8" to="B3A3"/>
    <trip id="0h164" depart="952.00" from="B11B10" to="J1J0"/>
    <trip id="0h165" depart="972.00" from="J11J10" to="K1L1"/>
    <trip id="0h166" depart="981.00" from="J11J10" to="K9L9"/>
    <trip id="0h167" depart="996.00" from="A5B5" to="B7B6"/>
    <trip id="0h168" depart="1005.00" from="L3K3" to="B1B0"/>
    <trip id="0h169" depart="1009.00" from="A5B5" to="D4D5"/>
    <trip id="0h170" depart="1010.00" from="A1B1" to="H10H11"/>
    <trip id="0h171" depart="1021.00" from="L3K3" to="H10H11"/>
    <trip id="0h172" depart="1023.00" from="F11F10" to="E6E5"/>
    <trip id="0h173" depart="1027.00" from="H1H2" to="K1L1"/>
    <trip id="0h174" depart="1032.00" from="D0D1" to="B3A3"/>
    <trip id="0h175" depart="1041.00" from="D0D1" to="H10H11"/>
    <trip id="0h176" depart="1041.00" from="B11B10" to="B3A3"/>
    <trip id="0h177" depart="1045.00" from="L3K3" to="K5L5"/>
    <trip id="0h178" depart="1048.00" from="B11B10" to="D10D11"/>
    <trip id="0h179" depart="1055.00" from="D0D1" to="D10D11"/>
    <trip id="0h180" depart="1060.00" from="A5B5" to="K5L5"/>
    <trip id="0h181" depart="1066.00" from="B11B10" to="H10H11"/>
    <trip id="0h182" depart="1071.00" from="B11B10" to="J1J0"/>
    <trip id="0h183" depart="1077.00" from="D0D1" to="B3A3"/>
    <trip id="0h184" depart="1077.00" from="B11B10" to="B1B0"/>
    <trip id="0h185" depart="1078.00" from="B11B10" to="D10D11"/>
    <trip id="0h186" depart="1090.00" from="A1B1" to="J1J0"/>
    <trip id="0h187" depart="1099.00" from="L7K7" to="D10D11"/>
    <trip id="0h188" depart="1106.00" from="J11J10" to="H10H11"/>
    <trip id="0h189" depart="1121.00" from="D0D1" to="B1B0"/>
    <trip id="0h190" depart="1125.00" from="K9K10" to="B1B0"/>
    <trip id="0h191" depart="1131.00" from="J11J10" to="F1F0"/>
    <trip id="0h192" depart="1137.00" from="L3K3" to="B3A3"/>
    <trip id="0h193" depart="1147.00" from="J11J10" to="D10D11"/>
    <trip id="0h194" depart="1150.00" from="A9B9" to="H10H11"/>
    <trip id="0h195" depart="1153.00" from="A5B5" to="D10D11"/>
    <trip id="0h196" depart="1171.00" from="A9B9" to="B1B0"/>
    <trip id="0h197" depart="1178.00" from="H0H1" to="J1J0"/>
    <trip id="0h198" depart="1183.00" from="D0D1" to="B1B0"/>
    <trip id="0h199" depart="1194.00" from="L7K7" to="B7A7"/>
    <trip id="0h200" depart="1195.00" from="A9B9" to="K1L1"/>
    <trip id="0h201" depart="1216.00" from="L3K3" to="B1B0"/>
    <trip id="0h202" depart="1222.00" from="L3K3" to="F1F0"/>
    <trip id="0h203" depart="1228.00" from="A1B1" to="K1L1"/>
    <trip id="0h204" depart="1230.00" from="J11J10" to="B7A7"/>
    <trip id="0h205" depart="1231.00" from="A9B9" to="B7A7"/>
    <trip id="0h206" depart="1235.00" from="J11J10" to="B3A3"/>
    <trip id="0h207" depart="1238.00" from="J11J10" to="J1J0"/>
    <trip id="0h208" depart="1241.00" from="B11B10" to="B3A3"/>
    <trip id="0h209" depart="1249.00" from="B11B10" to="B3A3"/>
    <trip id="0h210" depart="1258.00" from="H8I8" to="H10H11"/>
    <trip id="0h211" depart="1264.00" from="A1B1" to="B1B0"/>
    <trip id="0h212" depart="1264.00" from="B11B10" to="B10B9"/>
    <trip id="0h213" depart="1269.00" from="L3K3" to="J1J0"/>
    <trip id="0h214" depart="1278.00" from="J11J10" to="G3F3"/>
    <trip id="0h215" depart="1285.00" from="A5B5" to="K5L5"/>
    <trip id="0h216" depart="1287.00" from="J11J10" to="K1L1"/>
    <trip id="0h217" depart="1292.00" from="A1B1" to="K1L1"/>
    <trip id="0h218" depart="1293.00" from="L3K3" to="B3A3"/>
    <trip id="0h219" depart="1306.00" from="A9B9" to="K9L9"/>
    <trip id="0h220" depart="1309.00" from="B11B10" to="I4I3"/>
    <trip id="0h221" depart="1322.00" from="L3K3" to="K1L1"/>
    <trip id="0h222" depart="1324.00" from="D4D5" to="K1L1"/>
    <trip id="0h223" depart="1327.00" from="D0D1" to="J1J0"/>
    <trip id="0h224" depart="1328.00" from="A9B9" to="F1F0"/>
    <trip id="0h225" depart="1336.00" from="A1B1" to="K5L5"/>
    <trip id="0h226" depart="1344.00" from="F11F10" to="F5G5"/>
    <trip id="0h227" depart="1344.00" from="A9B9" to="B3A3"/>
    <trip id="0h228" depart="1354.00" from="J11J10" to="K9L9"/>
    <trip id="0h229" depart="1355.00" from="E8E9" to="K5K6"/>
    <trip id="0h230" depart="1365.00" from="A9B9" to="K1L1"/>
    <trip id="0h231" depart="1370.00" from="C2D2" to="K9L9"/>
    <trip id="0h232" depart="1380.00" from="A9B9" to="J1J0"/>
    <trip id="0h233" depart="1380.00" from="F11F10" to="C4B4"/>
    <trip id="0h234" depart="1385.00" from="A5B5" to="B7A7"/>
    <trip id="0h235" depart="1392.00" from="L7K7" to="D10D11"/>
    <trip id="0h236" depart="1393.00" from="A9B9" to="B3A3"/>
    <trip id="0h237" depart="1399.00" from="H5H6" to="K9L9"/>
    <trip id="0h238" depart="1411.00" from="A1B1" to="J1J0"/>
    <trip id="0h239" depart="1416.00" from="B11B10" to="B7A7"/>
    <trip id="0h240" depart="1418.00" from="H0H1" to="J1J0"/>
    <trip id="0h241" depart="1420.00" from="H0H1" to="B7A7"/>
    <trip id="0h242" depart="1432.00" from="A9B9" to="K1L1"/>
    <trip id="0h243" depart="1434.00" from="H0H1" to="B7A7"/>
    <trip id="0h244" depart="1439.00" from="A1B1" to="B7A7"/>
    <trip id="0h245" depart="1444.00" from="K3J3" to="G4F4"/>
    <trip id="0h246" depart="1452.00" from="J9K9" to="C9C8"/>
    <trip id="0h247" depart="1452.00" from="B3B2" to="F1F0"/>
    <trip id="0h248" depart="1456.00" from="H0H1" to="G7G6"/>
    <trip id="0h249" depart="1460.00" from="F11F10" to="F1F0"/>
    <trip id="0h250" depart="1473.00" from="F11F10" to="B1B0"/>
    <trip id="0h251" depart="1474.00" from="B11B10" to="K9L9"/>
    <trip id="0h252" depart="1476.00" from="A5B5" to="K5L5"/>
    <trip id="0h253" depart="1482.00" from="H0H1" to="J1J0"/>
    <trip id="0h254" depart="1489.00" from="B11B10" to="F2F1"/>
    <trip id="0h255" depart="1501.00" from="B11B10" to="B1B0"/>
    <trip id="0h256" depart="1503.00" from="C7C8" to="G7G8"/>
    <trip id="0h257" depart="1505.00" from="B11B10" to="B3A3"/>
    <trip id="0h258" depart="1505.00" from="A5B5" to="B7A7"/>
    <trip id="0h259" depart="1523.00" from="D0D1" to="F1F0"/>
    <trip id="0h260" depart="1528.00" from="H0H1" to="K9L9"/>
    <trip id="0h261" depart="1530.00" from="A5B5" to="K9L9"/>
    <trip id="0h262" depart="1543.00" from="A9B9" to="J1J0"/>
    <trip id="0h263" depart="1547.00" from="A9B9" to="K9L9"/>
    <trip id="0h264" depart="1551.00" from="I5J5" to="K6J6"/>
    <trip id="0h265" depart="1557.00" from="A9B9" to="K1L1"/>
    <trip id="0h266" depart="1564.00" from="F11F10" to="B3A3"/>
    <trip id="0h267" depart="1580.00" from="J11J10" to="D10D11"/>
    <trip id="0h268" depart="1586.00" from="E3E2" to="G8H8"/>
    <trip id="0h269" depart="1587.00" from="J11J10" to="F1F0"/>
    <trip id="0h270" depart="1597.00" from="L3K3" to="K5L5"/>
    <trip id="0h271" depart="1599.00" from="H0H1" to="K1L1"/>
    <trip id="0h272" depart="1605.00" from="A9B9" to="K5L5"/>
    <trip id="0h273" depart="1606.00" from="H1I1" to="E1F1"/>
    <trip id="0h274" depart="1607.00" from="A1B1" to="D10D11"/>
    <trip id="0h275" depart="1609.00" from="L3K3" to="F1F0"/>
    <trip id="0h276" depart="1611.00" from="H0H1" to="K9L9"/>
    <trip id="0h277" depart="1613.00" from="J11J10" to="K1L1"/>
    <trip id="0h278" depart="1617.00" from="L7K7" to="H10H11"/>
    <trip id="0h279" depart="1617.00" from="L7K7" to="K5L5"/>
    <trip id="0h280" depart="1622.00" from="J11J10" to="B1B0"/>
    <trip id="0h281" depart="1624.00" from="A5B5" to="H10H11"/>
    <trip id="0h282" depart="1628.00" from="L7K7" to="B7A7"/>
    <trip id="0h283" depart="1641.00" from="A1B1" to="B3A3"/>
    <trip id="0h284" depart="1645.00" from="D0D1" to="K9L9"/>
    <trip id="0h285" depart="1645.00" from="H0H1" to="H10H11"/>
    <trip id="0h286" depart="1645.00" from="B7B6" to="K9L9"/>
    <trip id="0h287" depart="1650.00" from="F11F10" to="D4E4"/>
    <trip id="0h288" depart="1653.00" from="J11J10" to="H10H11"/>
    <trip id="0h289" depart="1658.00" from="D0D1" to="B3A3"/>
    <trip id="0h290" depart="1666.00" from="A5B5" to="I6I5"/>
    <trip id="0h291" depart="1666.00" from="A1B1" to="B7A7"/>
    <trip id="0h292" depart="1675.00" from="H0H1" to="D4E4"/>
    <trip id="0h293" depart="1690.00" from="F11F10" to="J1J0"/>
    <trip id="0h294" depart="1700.00" from="C6D6" to="F1F0"/>
    <trip id="0h295" depart="1710.00" from="H0H1" to="B7A7"/>
    <trip id="0h296" depart="1713.00" from="L7K7" to="B3A3"/>
    <trip id="0h297" depart="1714.00" from="A5B5" to="B7A7"/>
    <trip id="0h298" depart="1714.00" from="H0H1" to="J1J0"/>
    <trip id="0h299" depart="1721.00" from="D0D1" to="H10H11"/>
    <trip id="0h300" depart="1731.00" from="L3K3" to="H10H11"/>
    <trip id="0h301" depart="1738.00" from="A9B9" to="F1F0"/>
    <trip id="0h302" depart="1745.00" from="L3K3" to="B3A3"/>
    <trip id="0h303" depart="1747.00" from="D0D1" to="B3A3"/>
    <trip id="0h304" depart="1758.00" from="F11F10" to="B7A7"/>
    <trip id="0h305" depart="1758.00" from="F11F10" to="G9G8"/>
    <trip id="0h306" depart="1768.00" from="J11J10" to="B3A3"/>
    <trip id="0h307" depart="1769.00" from="J11J10" to="B7A7"/>
    <trip id="0h308" depart="1775.00" from="A1B1" to="K9L9"/>
    <trip id="0h309" depart="1776.00" from="H0H1" to="D10D11"/>
    <trip id="0h310" depart="1783.00" from="L3K3" to="H10H11"/>
    <trip id="0h311" depart="1787.00" from="D0D1" to="D10D11"/>
    <trip id="0h312" depart="1794.00" from="L3K3" to="H10H11"/>
    <trip id="0h313" depart="1797.00" from="L7K7" to="D10D11"/>
    <trip id="0h314" depart="1804.00" from="L3K3" to="K9L9"/>
    <trip id="0h315" depart="1814.00" from="K8J8" to="F1F0"/>
    <trip id="0h316" depart="1823.00" from="B11B10" to="H10H11"/>
    <trip id="0h317" depart="1830.00" from="L7K7" to="H10H11"/>
    <trip id="0h318" depart="1837.00" from="L3K3" to="D10D11"/>
    <trip id="0h319" depart="1839.00" from="A5B5" to="F1F0"/>
    <trip id="0h320" depart="1842.00" from="A9B9" to="G3G2"/>
    <trip id="0h321" depart="1849.00" from="J11J10" to="B1B0"/>
    <trip id="0h322" depart="1855.00" from="D6D7" to="H10H11"/>
    <trip id="0h323" depart="1859.00" from="B11B10" to="B7A7"/>
    <trip id="0h324" depart="1860.00" from="B1C1" to="B7A7"/>
    <trip id="0h325" depart="1870.00" from="A1B1" to="B3A3"/>
    <trip id="0h326" depart="1871.00" from="L3K3" to="B1B0"/>
    <trip id="0h327" depart="1871.00" from="F11F10" to="B7A7"/>
    <trip id="0h328" depart="1872.00" from="F11F10" to="H10H11"/>
    <trip id="0h329" depart="1878.00" from="C6B6" to="D10D11"/>
    <trip id="0h330" depart="1882.00" from="B11B10" to="B3A3"/>
    <trip id="0h331" depart="1884.00" from="H0H1" to="K5L5"/>
    <trip id="0h332" depart="1889.00" from="F11F10" to="K1L1"/>
    <trip id="0h333" depart="1897.00" from="H0H1" to="B7A7"/>
    <trip id="0h334" depart="1899.00" from="L3K3" to="K1L1"/>
    <trip id="0h335" depart="1900.00" from="L7K7" to="F8E8"/>
    <trip id="0h336" depart="1905.00" from="A5B5" to="B7A7"/>
    <trip id="0h337" depart="1906.00" from="A5B5" to="F1F0"/>
    <trip id="0h338" depart="1909.00" from="J11J10" to="H10H11"/>
    <trip id="0h339" depart="1909.00" from="H0H1" to="J1J0"/>
    <trip id="0h340" depart="1913.00" from="L7K7" to="B7A7"/>
    <trip id="0h341" depart="1915.00" from="L3K3" to="K1L1"/>
    <trip id="0h342" depart="1924.00" from="A9B9" to="F1F0"/>
    <trip id="0h343" depart="1926.00" from="H0H1" to="D5D6"/>
    <trip id="0h344" depart="1930.00" from="A9B9" to="J1J0"/>
    <trip id="0h345" depart="1939.00" from="A9B9" to="H10H11"/>
    <trip id="0h346" depart="1944.00" from="J11J10" to="K9L9"/>
    <trip id="0h347" depart="1945.00" from="I7I6" to="B3A3"/>
    <trip id="0h348" depart="1947.00" from="A5B5" to="D10D11"/>
    <trip id="0h349" depart="1949.00" from="F11F10" to="D10D11"/>
    <trip id="0h350" depart="1963.00" from="F11F10" to="E9F9"/>
    <trip id="0h351" depart="1969.00" from="A9B9" to="B1B0"/>
    <trip id="0h352" depart="1970.00" from="A1B1" to="K9L9"/>
    <trip id="0h353" depart="1972.00" from="F2E2" to="B7A7"/>
    <trip id="0h354" depart="1973.00" from="L7K7" to="H9H10"/>
    <trip id="0h355" depart="1980.00" from="B11B10" to="G1G2"/>
    <trip id="0h356" depart="1981.00" from="J11J10" to="H10H11"/>
    <trip id="0h357" depart="1985.00" from="F11F10" to="D10D11"/>
    <trip id="0h358" depart="1994.00" from="A9B9" to="K1L1"/>
    <trip id="0h359" depart="1998.00" from="B11B10" to="H2H3"/>
    <trip id="0h360" depart="2000.00" from="H0H1" to="K9L9"/>
    <trip id="0h361" depart="2002.00" from="L7K7" to="K1L1"/>
    <trip id="0h362" depart="2007.00" from="A1B1" to="B3A3"/>
    <trip id="0h363" depart="2007.00" from="H0H1" to="F1F0"/>
    <trip id="0h364" depart="2008.00" from="A9B9" to="K1L1"/>
    <trip id="0h365" depart="2009.00" from="A5B5" to="K9L9"/>
    <trip id="0h366" depart="2011.00" from="L7K7" to="D10D11"/>
    <trip id="0h367" depart="2016.00" from="D0D1" to="B1B0"/>
    <trip id="0h368" depart="2028.00" from="A9B9" to="K9L9"/>
    <trip id="0h369" depart="2029.00" from="F11F10" to="F7F6"/>
    <trip id="0h370" depart="2032.00" from="B11B10" to="F1F0"/>
    <trip id="0h371" depart="2035.00" from="B5B4" to="K1L1"/>
    <trip id="0h372" depart="2037.00" from="A9B9" to="K5L5"/>
    <trip id="0h373" depart="2037.00" from="B11B10" to="K5L5"/>
    <trip id="0h374" depart="2037.00" from="J11J10" to="H10H11"/>
    <trip id="0h375" depart="2046.00" from="E5F5" to="C3C4"/>
    <trip id="0h376" depart="2051.00" from="A1B1" to="J8I8"/>
    <trip id="0h377" depart="2051.00" from="F11F10" to="B3A3"/>
    <trip id="0h378" depart="2056.00" from="F11F10" to="J1J0"/>
    <trip id="0h379" depart="2058.00" from="L7K7" to="F1F0"/>
    <trip id="0h380" depart="2059.00" from="A9B9" to="K1L1"/>
    <trip id="0h381" depart="2059.00" from="D0D1" to="J1J0"/>
    <trip id="0h382" depart="2064.00" from="H0H1" to="B1B0"/>
    <trip id="0h383" depart="2065.00" from="H0H1" to="H10H11"/>
    <trip id="0h384" depart="2070.00" from="H0H1" to="D10D11"/>
    <trip id="0h385" depart="2072.00" from="L3K3" to="K1L1"/>
    <trip id="0h386" depart="2074.00" from="F11F10" to="B1B0"/>
    <trip id="0h387" depart="2083.00" from="H7H8" to="B7A7"/>
    <trip id="0h388" depart="2088.00" from="H0H1" to="K9L9"/>
    <trip id="0h389" depart="2091.00" from="A1B1" to="H10H11"/>
    <trip id="0h390" depart="2094.00" from="J11J10" to="K5L5"/>
    <trip id="0h391" depart="2096.00" from="J11J10" to="J1J0"/>
    <trip id="0h392" depart="2098.00" from="B11B10" to="B1B0"/>
    <trip id="0h393" depart="2099.00" from="B11B10" to="K5L5"/>
    <trip id="0h394" depart="2101.00" from="A9B9" to="D10D11"/>
    <trip id="0h395" depart="2103.00" from="F11F10" to="J4I4"/>
    <trip id="0h396" depart="2138.00" from="L7K7" to="K1L1"/>
    <trip id="0h397" depart="2146.00" from="D9D10" to="B7A7"/>
    <trip id="0h398" depart="2148.00" from="A1B1" to="D10D11"/>
    <trip id="0h399" depart="2151.00" from="J11J10" to="B1B0"/>
    <trip id="0h400" depart="2152.00" from="L3K3" to="K3J3"/>
    <trip id="0h401" depart="2153.00" from="A1B1" to="B7A7"/>
    <trip id="0h402" depart="2153.00" from="B11B10" to="K5L5"/>
    <trip id="0h403" depart="2159.00" from="B11B10" to="G6H6"/>
    <trip id="0h404" depart="2171.00" from="A5B5" to="H10H11"/>
    <trip id="0h405" depart="2174.00" from="D0D1" to="H10H11"/>
    <trip id="0h406" depart="2180.00" from="B11B10" to="J1J0"/>
    <trip id="0h407" depart="2185.00" from="A5B5" to="K5L5"/>
    <trip id="0h408" depart="2185.00" from="L7K7" to="H10H11"/>
    <trip id="0h409" depart="2195.00" from="J9K9" to="G5G4"/>
    <trip id="0h410" depart="2196.00" from="H0H1" to="K1L1"/>
    <trip id="0h411" depart="2201.00" from="L7K7" to="D10D11"/>
    <trip id="0h412" depart="2207.00" from="J7I7" to="H10H11"/>
    <trip id="0h413" depart="2209.00" from="A1B1" to="B1B0"/>
    <trip id="0h414" depart="2212.00" from="B11B10" to="B7A7"/>
    <trip id="0h415" depart="2213.00" from="A1B1" to="B1B0"/>
    <trip id="0h416" depart="2219.00" from="A9B9" to="B3A3"/>
    <trip id="0h417" depart="2220.00" from="A5B5" to="F1F0"/>
    <trip id="0h418" depart="2221.00" from="H0H1" to="B7A7"/>
    <trip id="0h419" depart="2238.00" from="D0D1" to="B3A3"/>
    <trip id="0h420" depart="2241.00" from="L3K3" to="K9L9"/>
    <trip id="0h421" depart="2244.00" from="A9B9" to="I8I7"/>
    <trip id="0h422" depart="2245.00" from="A1B1" to="B3A3"/>
    <trip id="0h423" depart="2250.00" from="A5B5" to="D10D11"/>
    <trip id="0h424" depart="2254.00" from="L7K7" to="G8H8"/>
    <trip id="0h425" depart="2261.00" from="J11J10" to="D10D11"/>
    <trip id="0h426" depart="2270.00" from="H0H1" to="D10D11"/>
    <trip id="0h427" depart="2271.00" from="A1B1" to="J1J0"/>
    <trip id="0h428" depart="2278.00" from="J5J4" to="J1J0"/>
    <trip id="0h429" depart="2281.00" from="L3K3" to="B1B0"/>
    <trip id="0h430" depart="2282.00" from="L7K7" to="K5L5"/>
    <trip id="0h431" depart="2285.00" from="B6B5" to="J1J0"/>
    <trip id="0h432" depart="2291.00" from="H7G7" to="B7A7"/>
    <trip id="0h433" depart="2292.00" from="B11B10" to="H10H11"/>
    <trip id="0h434" depart="2298.00" from="A5B5" to="B7A7"/>
    <trip id="0h435" depart="2300.00" from="L7K7" to="J1J0"/>
    <trip id="0h436" depart="2307.00" from="F11F10" to="H3H4"/>
    <trip id="0h437" depart="2310.00" from="D1E1" to="C7C6"/>
    <trip id="0h438" depart="2311.00" from="F11F10" to="B1B0"/>
    <trip id="0h439" depart="2312.00" from="L7K7" to="B1B0"/>
    <trip id="0h440" depart="2321.00" from="H0H1" to="B1B0"/>
    <trip id="0h441" depart="2332.00" from="H0H1" to="D10D11"/>
    <trip id="0h442" depart="2332.00" from="L7K7" to="B1B0"/>
    <trip id="0h443" depart="2339.00" from="J11J10" to="H10H11"/>
    <trip id="0h444" depart="2369.00" from="J11J10" to="F1F0"/>
    <trip id="0h445" depart="2373.00" from="L7K7" to="D10D11"/>
    <trip id="0h446" depart="2376.00" from="G8F8" to="F1F0"/>
    <trip id="0h447" depart="2382.00" from="D0D1" to="B7A7"/>
    <trip id="0h448" depart="2388.00" from="J11J10" to="K1L1"/>
    <trip id="0h449" depart="2390.00" from="H8H9" to="F1F0"/>
    <trip id="0h450" depart="2394.00" from="L7K7" to="K9L9"/>
    <trip id="0h451" depart="2399.00" from="L3K3" to="B1B0"/>
    <trip id="0h452" depart="2400.00" from="B11B10" to="K9L9"/>
    <trip id="0h453" depart="2411.00" from="L7K7" to="B7A7"/>
    <trip id="0h454" depart="2416.00" from="D0D1" to="B3A3"/>
    <trip id="0h455" depart="2416.00" from="H0H1" to="B1B0"/>
    <trip id="0h456" depart="2417.00" from="A9B9" to="J1J0"/>
    <trip id="0h457" depart="2420.00" from="L3K3" to="K5L5"/>
    <trip id="0h458" depart="2422.00" from="C2D2" to="D3C3"/>
    <trip id="0h459" depart="2430.00" from="D0D1" to="B3A3"/>
    <trip id="0h460" depart="2437.00" from="F11F10" to="B3A3"/>
    <trip id="0h461" depart="2441.00" from="D0D1" to="D10D11"/>
    <trip id="0h462" depart="2447.00" from="B11B10" to="K1L1"/>
    <trip id="0h463" depart="2462.00" from="A9B9" to="K5L5"/>
    <trip id="0h464" depart="2464.00" from="A9B9" to="B3A3"/>
    <trip id="0h465" depart="2479.00" from="J11J10" to="K1L1"/>
    <trip id="0h466" depart="2509.00" from="B11B10" to="B3A3"/>
    <trip id="0h467" depart="2510.00" from="A9B9" to="F1F0"/>
    <trip id="0h468" depart="2510.00" from="L3K3" to="K9L9"/>
    <trip id="0h469" depart="2514.00" from="A9B9" to="K1L1"/>
    <trip id="0h470" depart="2516.00" from="A5B5" to="E5F5"/>
    <trip id="0h471" depart="2534.00" from="A5B5" to="D10D11"/>
    <trip id="0h472" depart="2541.00" from="J11J10" to="F3F2"/>