<?xml version="1.0" encoding="UTF-8"?>

<!-- generated on 11/14/20 17:28:31 by Eclipse SUMO netedit Version 1.7.0
<configuration xmlns:xsi="http://www.w3.org/2001/XMLSchema-instance" xsi:noNamespaceSchemaLocation="http://sumo.dlr.de/xsd/netconvertConfiguration.xsd">

    <input>
        <sumo-net-file value="D:\01-Trabajo\01-Arquitectura\ETH\202009-Fall%202020\851-0101-86S%20Complex%20Social%20Systems%20Modeling%20Agents%20Learning%20and%20Games\project\experiments\compar_032\data\grid01-bcn_10.net.xml"/>
    </input>

    <output>
        <output-file value="D:\01-Trabajo\01-Arquitectura\ETH\202009-Fall%202020\851-0101-86S%20Complex%20Social%20Systems%20Modeling%20Agents%20Learning%20and%20Games\project\experiments\compar_032\data\grid01-bcn_10.net.xml"/>
    </output>

    <processing>
        <geometry.min-radius.fix.railways value="false"/>
        <geometry.max-grade.fix value="false"/>
        <offset.disable-normalization value="true"/>
        <lefthand value="false"/>
    </processing>

    <junctions>
        <no-internal-links value="false"/>
        <no-turnarounds value="true"/>
        <junctions.corner-detail value="5"/>
        <junctions.limit-turn-speed value="5.5"/>
        <rectangular-lane-cut value="false"/>
    </junctions>

    <pedestrian>
        <walkingareas value="true"/>
    </pedestrian>

    <report>
        <aggregate-warnings value="5"/>
    </report>

</configuration>
-->

<net version="1.6" junctionCornerDetail="5" walkingareas="true" limitTurnSpeed="5.50" xmlns:xsi="http://www.w3.org/2001/XMLSchema-instance" xsi:noNamespaceSchemaLocation="http://sumo.dlr.de/xsd/net_file.xsd">

    <location netOffset="0.00,0.00" convBoundary="0.00,0.00,1466.63,1466.63" origBoundary="0.00,0.00,1466.63,1466.63" projParameter="!"/>

    <edge id=":A1_w0" function="walkingarea">
        <lane id=":A1_w0_0" index="0" allow="pedestrian" speed="1.00" length="8.40" width="2.00" shape="0.00,126.93 0.00,124.93 0.00,135.33 0.00,133.33"/>
    </edge>
    <edge id=":A10_w0" function="walkingarea">
        <lane id=":A10_w0_0" index="0" allow="pedestrian" speed="1.00" length="2.00" width="2.00" shape="0.00,1333.30 0.00,1331.30 0.00,1335.30 0.00,1333.30"/>
    </edge>
    <edge id=":A2_w0" function="walkingarea">
        <lane id=":A2_w0_0" index="0" allow="pedestrian" speed="1.00" length="2.00" width="2.00" shape="0.00,266.66 0.00,264.66 0.00,268.66 0.00,266.66"/>
    </edge>
    <edge id=":A3_w0" function="walkingarea">
        <lane id=":A3_w0_0" index="0" allow="pedestrian" speed="1.00" length="8.40" width="2.00" shape="0.00,399.99 0.00,397.99 0.00,408.39 0.00,406.39"/>
    </edge>
    <edge id=":A4_w0" function="walkingarea">
        <lane id=":A4_w0_0" index="0" allow="pedestrian" speed="1.00" length="2.00" width="2.00" shape="0.00,533.32 0.00,531.32 0.00,535.32 0.00,533.32"/>
    </edge>
    <edge id=":A5_w0" function="walkingarea">
        <lane id=":A5_w0_0" index="0" allow="pedestrian" speed="1.00" length="8.40" width="2.00" shape="0.00,660.25 0.00,658.25 0.00,668.65 0.00,666.65"/>
    </edge>
    <edge id=":A6_w0" function="walkingarea">
        <lane id=":A6_w0_0" index="0" allow="pedestrian" speed="1.00" length="2.00" width="2.00" shape="0.00,799.98 0.00,797.98 0.00,801.98 0.00,799.98"/>
    </edge>
    <edge id=":A7_w0" function="walkingarea">
        <lane id=":A7_w0_0" index="0" allow="pedestrian" speed="1.00" length="8.40" width="2.00" shape="0.00,933.31 0.00,931.31 0.00,941.71 0.00,939.71"/>
    </edge>
    <edge id=":A8_w0" function="walkingarea">
        <lane id=":A8_w0_0" index="0" allow="pedestrian" speed="1.00" length="2.00" width="2.00" shape="0.00,1066.64 0.00,1064.64 0.00,1068.64 0.00,1066.64"/>
    </edge>
    <edge id=":A9_w0" function="walkingarea">
        <lane id=":A9_w0_0" index="0" allow="pedestrian" speed="1.00" length="8.40" width="2.00" shape="0.00,1193.57 0.00,1191.57 0.00,1201.97 0.00,1199.97"/>
    </edge>
    <edge id=":B0_w0" function="walkingarea">
        <lane id=":B0_w0_0" index="0" allow="pedestrian" speed="1.00" length="8.40" width="2.00" shape="133.33,0.00 135.33,0.00 124.93,0.00 126.93,0.00"/>
    </edge>
    <edge id=":B1_0" function="internal">
        <lane id=":B1_0_0" index="0" disallow="pedestrian" speed="13.89" length="14.40" shape="128.53,137.33 128.53,122.93"/>
        <lane id=":B1_0_1" index="1" disallow="pedestrian" speed="13.89" length="14.40" shape="131.73,137.33 131.73,122.93"/>
    </edge>
    <edge id=":B1_2" function="internal">
        <lane id=":B1_2_0" index="0" disallow="pedestrian" speed="6.51" length="9.03" shape="131.73,137.33 132.08,134.88 133.13,133.13 134.88,132.08 137.33,131.73"/>
    </edge>
    <edge id=":B1_3" function="internal">
        <lane id=":B1_3_0" index="0" disallow="pedestrian" speed="6.51" length="9.03" shape="122.93,128.53 125.38,128.18 127.13,127.13 128.18,125.38 128.53,122.93"/>
    </edge>
    <edge id=":B1_4" function="internal">
        <lane id=":B1_4_0" index="0" disallow="pedestrian" speed="13.89" length="14.40" shape="122.93,128.53 137.33,128.53"/>
        <lane id=":B1_4_1" index="1" disallow="pedestrian" speed="13.89" length="14.40" shape="122.93,131.73 137.33,131.73"/>
    </edge>
    <edge id=":B1_w0" function="walkingarea">
        <lane id=":B1_w0_0" index="0" allow="pedestrian" speed="1.00" length="4.24" width="2.00" shape="122.93,133.33 122.93,135.33 124.93,137.33 126.93,137.33 126.82,136.11 126.49,135.11 125.93,134.33 125.15,133.77 124.15,133.44"/>
    </edge>
    <edge id=":B1_w1" function="walkingarea">
        <lane id=":B1_w1_0" index="0" allow="pedestrian" speed="1.00" length="4.24" width="2.00" shape="133.33,137.33 135.33,137.33 137.33,135.33 137.33,133.33 136.11,133.44 135.11,133.77 134.33,134.33 133.77,135.11 133.44,136.11"/>
    </edge>
    <edge id=":B1_w2" function="walkingarea">
        <lane id=":B1_w2_0" index="0" allow="pedestrian" speed="1.00" length="4.24" width="2.00" shape="137.33,126.93 137.33,124.93 135.33,122.93 133.33,122.93 133.44,124.15 133.77,125.15 134.33,125.93 135.11,126.49 136.11,126.82"/>
    </edge>
    <edge id=":B1_w3" function="walkingarea">
        <lane id=":B1_w3_0" index="0" allow="pedestrian" speed="1.00" length="4.24" width="2.00" shape="126.93,122.93 124.93,122.93 122.93,124.93 122.93,126.93 124.15,126.82 125.15,126.49 125.93,125.93 126.49,125.15 126.82,124.15"/>
    </edge>
    <edge id=":B10_0" function="internal">
        <lane id=":B10_0_0" index="0" disallow="pedestrian" speed="13.89" length="10.00" shape="128.53,1339.80 128.53,1329.80"/>
        <lane id=":B10_0_1" index="1" disallow="pedestrian" speed="13.89" length="10.00" shape="131.73,1339.80 131.73,1329.80"/>
    </edge>
    <edge id=":B10_2" function="internal">
        <lane id=":B10_2_0" index="0" disallow="pedestrian" speed="6.19" length="8.14" shape="136.83,1334.80 134.60,1334.49 133.01,1333.55 132.05,1331.99 131.73,1329.80"/>
    </edge>
    <edge id=":B10_w0" function="walkingarea">
        <lane id=":B10_w0_0" index="0" allow="pedestrian" speed="1.00" length="5.77" width="2.00" shape="126.93,1329.80 124.93,1329.80 123.43,1331.30 123.43,1333.30 123.43,1333.30 123.43,1335.30 124.93,1339.80 126.93,1339.80"/>
    </edge>
    <edge id=":B10_w1" function="walkingarea">
        <lane id=":B10_w1_0" index="0" allow="pedestrian" speed="1.00" length="3.54" width="2.00" shape="133.33,1339.80 135.33,1339.80 136.83,1338.30 136.83,1336.30 135.76,1336.40 134.89,1336.69 134.21,1337.18 133.72,1337.86 133.43,1338.73"/>
    </edge>
    <edge id=":B10_w2" function="walkingarea">
        <lane id=":B10_w2_0" index="0" allow="pedestrian" speed="1.00" length="3.54" width="2.00" shape="136.83,1333.30 136.83,1331.30 135.33,1329.80 133.33,1329.80 133.43,1330.87 133.72,1331.74 134.21,1332.43 134.89,1332.91 135.76,1333.20"/>
    </edge>
    <edge id=":B11_w0" function="walkingarea">
        <lane id=":B11_w0_0" index="0" allow="pedestrian" speed="1.00" length="8.40" width="2.00" shape="126.93,1466.63 124.93,1466.63 135.33,1466.63 133.33,1466.63"/>
    </edge>
    <edge id=":B2_0" function="internal">
        <lane id=":B2_0_0" index="0" disallow="pedestrian" speed="13.89" length="10.20" shape="128.53,273.36 128.53,263.16"/>
        <lane id=":B2_0_1" index="1" disallow="pedestrian" speed="13.89" length="10.20" shape="131.73,273.36 131.73,263.16"/>
    </edge>
    <edge id=":B2_2" function="internal">
        <lane id=":B2_2_0" index="0" disallow="pedestrian" speed="6.24" length="8.23" shape="136.83,268.26 134.60,267.94 133.01,266.99 132.05,265.39 131.73,263.16"/>
    </edge>
    <edge id=":B2_w0" function="walkingarea">
        <lane id=":B2_w0_0" index="0" allow="pedestrian" speed="1.00" length="5.87" width="2.00" shape="126.93,263.16 124.93,263.16 123.43,264.66 123.43,266.66 123.43,266.66 123.43,268.66 124.93,273.36 126.93,273.36"/>
    </edge>
    <edge id=":B2_w1" function="walkingarea">
        <lane id=":B2_w1_0" index="0" allow="pedestrian" speed="1.00" length="3.54" width="2.00" shape="133.33,273.36 135.33,273.36 136.83,271.86 136.83,269.86 135.76,269.96 134.89,270.25 134.21,270.74 133.72,271.42 133.43,272.29"/>
    </edge>
    <edge id=":B2_w2" function="walkingarea">
        <lane id=":B2_w2_0" index="0" allow="pedestrian" speed="1.00" length="3.54" width="2.00" shape="136.83,266.66 136.83,264.66 135.33,263.16 133.33,263.16 133.43,264.23 133.72,265.10 134.21,265.79 134.89,266.27 135.76,266.56"/>
    </edge>
    <edge id=":B3_0" function="internal">
        <lane id=":B3_0_0" index="0" disallow="pedestrian" speed="6.51" length="9.03" shape="128.53,410.39 128.18,407.94 127.13,406.19 125.38,405.14 122.93,404.79"/>
    </edge>
    <edge id=":B3_1" function="internal">
        <lane id=":B3_1_0" index="0" disallow="pedestrian" speed="13.89" length="14.40" shape="128.53,410.39 128.53,395.99"/>
        <lane id=":B3_1_1" index="1" disallow="pedestrian" speed="13.89" length="14.40" shape="131.73,410.39 131.73,395.99"/>
    </edge>
    <edge id=":B3_3" function="internal">
        <lane id=":B3_3_0" index="0" disallow="pedestrian" speed="13.89" length="14.40" shape="137.33,404.79 122.93,404.79"/>
        <lane id=":B3_3_1" index="1" disallow="pedestrian" speed="13.89" length="14.40" shape="137.33,401.59 122.93,401.59"/>
    </edge>
    <edge id=":B3_5" function="internal">
        <lane id=":B3_5_0" index="0" disallow="pedestrian" speed="6.51" length="9.03" shape="137.33,401.59 134.88,401.24 133.13,400.19 132.08,398.44 131.73,395.99"/>
    </edge>
    <edge id=":B3_w0" function="walkingarea">
        <lane id=":B3_w0_0" index="0" allow="pedestrian" speed="1.00" length="4.24" width="2.00" shape="122.93,406.39 122.93,408.39 124.93,410.39 126.93,410.39 126.82,409.17 126.49,408.17 125.93,407.39 125.15,406.83 124.15,406.50"/>
    </edge>
    <edge id=":B3_w1" function="walkingarea">
        <lane id=":B3_w1_0" index="0" allow="pedestrian" speed="1.00" length="4.24" width="2.00" shape="133.33,410.39 135.33,410.39 137.33,408.39 137.33,406.39 136.11,406.50 135.11,406.83 134.33,407.39 133.77,408.17 133.44,409.17"/>
    </edge>
    <edge id=":B3_w2" function="walkingarea">
        <lane id=":B3_w2_0" index="0" allow="pedestrian" speed="1.00" length="4.24" width="2.00" shape="137.33,399.99 137.33,397.99 135.33,395.99 133.33,395.99 133.44,397.21 133.77,398.21 134.33,398.99 135.11,399.55 136.11,399.88"/>
    </edge>
    <edge id=":B3_w3" function="walkingarea">
        <lane id=":B3_w3_0" index="0" allow="pedestrian" speed="1.00" length="4.24" width="2.00" shape="126.93,395.99 124.93,395.99 122.93,397.99 122.93,399.99 124.15,399.88 125.15,399.55 125.93,398.99 126.49,398.21 126.82,397.21"/>
    </edge>
    <edge id=":B4_0" function="internal">
        <lane id=":B4_0_0" index="0" disallow="pedestrian" speed="13.89" length="10.20" shape="128.53,540.02 128.53,529.82"/>
        <lane id=":B4_0_1" index="1" disallow="pedestrian" speed="13.89" length="10.20" shape="131.73,540.02 131.73,529.82"/>
    </edge>
    <edge id=":B4_2" function="internal">
        <lane id=":B4_2_0" index="0" disallow="pedestrian" speed="6.24" length="8.23" shape="136.83,534.92 134.60,534.60 133.01,533.65 132.05,532.05 131.73,529.82"/>
    </edge>
    <edge id=":B4_w0" function="walkingarea">
        <lane id=":B4_w0_0" index="0" allow="pedestrian" speed="1.00" length="5.87" width="2.00" shape="126.93,529.82 124.93,529.82 123.43,531.32 123.43,533.32 123.43,533.32 123.43,535.32 124.93,540.02 126.93,540.02"/>
    </edge>
    <edge id=":B4_w1" function="walkingarea">
        <lane id=":B4_w1_0" index="0" allow="pedestrian" speed="1.00" length="3.54" width="2.00" shape="133.33,540.02 135.33,540.02 136.83,538.52 136.83,536.52 135.76,536.62 134.89,536.91 134.21,537.40 133.72,538.08 133.43,538.95"/>
    </edge>
    <edge id=":B4_w2" function="walkingarea">
        <lane id=":B4_w2_0" index="0" allow="pedestrian" speed="1.00" length="3.54" width="2.00" shape="136.83,533.32 136.83,531.32 135.33,529.82 133.33,529.82 133.43,530.89 133.72,531.76 134.21,532.45 134.89,532.93 135.76,533.22"/>
    </edge>
    <edge id=":B5_0" function="internal">
        <lane id=":B5_0_0" index="0" disallow="pedestrian" speed="13.89" length="14.40" shape="128.53,670.65 128.53,656.25"/>
        <lane id=":B5_0_1" index="1" disallow="pedestrian" speed="13.89" length="14.40" shape="131.73,670.65 131.73,656.25"/>
    </edge>
    <edge id=":B5_2" function="internal">
        <lane id=":B5_2_0" index="0" disallow="pedestrian" speed="6.51" length="9.03" shape="131.73,670.65 132.08,668.20 133.13,666.45 134.88,665.40 137.33,665.05"/>
    </edge>
    <edge id=":B5_3" function="internal">
        <lane id=":B5_3_0" index="0" disallow="pedestrian" speed="6.51" length="9.03" shape="122.93,661.85 125.38,661.50 127.13,660.45 128.18,658.70 128.53,656.25"/>
    </edge>
    <edge id=":B5_4" function="internal">
        <lane id=":B5_4_0" index="0" disallow="pedestrian" speed="13.89" length="14.40" shape="122.93,661.85 137.33,661.85"/>
        <lane id=":B5_4_1" index="1" disallow="pedestrian" speed="13.89" length="14.40" shape="122.93,665.05 137.33,665.05"/>
    </edge>
    <edge id=":B5_w0" function="walkingarea">
        <lane id=":B5_w0_0" index="0" allow="pedestrian" speed="1.00" length="4.24" width="2.00" shape="122.93,666.65 122.93,668.65 124.93,670.65 126.93,670.65 126.82,669.43 126.49,668.43 125.93,667.65 125.15,667.09 124.15,666.76"/>
    </edge>
    <edge id=":B5_w1" function="walkingarea">
        <lane id=":B5_w1_0" index="0" allow="pedestrian" speed="1.00" length="4.24" width="2.00" shape="133.33,670.65 135.33,670.65 137.33,668.65 137.33,666.65 136.11,666.76 135.11,667.09 134.33,667.65 133.77,668.43 133.44,669.43"/>
    </edge>
    <edge id=":B5_w2" function="walkingarea">
        <lane id=":B5_w2_0" index="0" allow="pedestrian" speed="1.00" length="4.24" width="2.00" shape="137.33,660.25 137.33,658.25 135.33,656.25 133.33,656.25 133.44,657.47 133.77,658.47 134.33,659.25 135.11,659.81 136.11,660.14"/>
    </edge>
    <edge id=":B5_w3" function="walkingarea">
        <lane id=":B5_w3_0" index="0" allow="pedestrian" speed="1.00" length="4.24" width="2.00" shape="126.93,656.25 124.93,656.25 122.93,658.25 122.93,660.25 124.15,660.14 125.15,659.81 125.93,659.25 126.49,658.47 126.82,657.47"/>
    </edge>
    <edge id=":B6_0" function="internal">
        <lane id=":B6_0_0" index="0" disallow="pedestrian" speed="13.89" length="10.20" shape="128.53,806.68 128.53,796.48"/>
        <lane id=":B6_0_1" index="1" disallow="pedestrian" speed="13.89" length="10.20" shape="131.73,806.68 131.73,796.48"/>
    </edge>
    <edge id=":B6_2" function="internal">
        <lane id=":B6_2_0" index="0" disallow="pedestrian" speed="6.24" length="8.23" shape="136.83,801.58 134.60,801.26 133.01,800.31 132.05,798.71 131.73,796.48"/>
    </edge>
    <edge id=":B6_w0" function="walkingarea">
        <lane id=":B6_w0_0" index="0" allow="pedestrian" speed="1.00" length="5.87" width="2.00" shape="126.93,796.48 124.93,796.48 123.43,797.98 123.43,799.98 123.43,799.98 123.43,801.98 124.93,806.68 126.93,806.68"/>
    </edge>
    <edge id=":B6_w1" function="walkingarea">
        <lane id=":B6_w1_0" index="0" allow="pedestrian" speed="1.00" length="3.54" width="2.00" shape="133.33,806.68 135.33,806.68 136.83,805.18 136.83,803.18 135.76,803.28 134.89,803.57 134.21,804.06 133.72,804.74 133.43,805.61"/>
    </edge>
    <edge id=":B6_w2" function="walkingarea">
        <lane id=":B6_w2_0" index="0" allow="pedestrian" speed="1.00" length="3.54" width="2.00" shape="136.83,799.98 136.83,797.98 135.33,796.48 133.33,796.48 133.43,797.55 133.72,798.42 134.21,799.11 134.89,799.59 135.76,799.88"/>
    </edge>
    <edge id=":B7_0" function="internal">
        <lane id=":B7_0_0" index="0" disallow="pedestrian" speed="6.51" length="9.03" shape="128.53,943.71 128.18,941.26 127.13,939.51 125.38,938.46 122.93,938.11"/>
    </edge>
    <edge id=":B7_1" function="internal">
        <lane id=":B7_1_0" index="0" disallow="pedestrian" speed="13.89" length="14.40" shape="128.53,943.71 128.53,929.31"/>
        <lane id=":B7_1_1" index="1" disallow="pedestrian" speed="13.89" length="14.40" shape="131.73,943.71 131.73,929.31"/>
    </edge>
    <edge id=":B7_3" function="internal">
        <lane id=":B7_3_0" index="0" disallow="pedestrian" speed="13.89" length="14.40" shape="137.33,938.11 122.93,938.11"/>
        <lane id=":B7_3_1" index="1" disallow="pedestrian" speed="13.89" length="14.40" shape="137.33,934.91 122.93,934.91"/>
    </edge>
    <edge id=":B7_5" function="internal">
        <lane id=":B7_5_0" index="0" disallow="pedestrian" speed="6.51" length="9.03" shape="137.33,934.91 134.88,934.56 133.13,933.51 132.08,931.76 131.73,929.31"/>
    </edge>
    <edge id=":B7_w0" function="walkingarea">
        <lane id=":B7_w0_0" index="0" allow="pedestrian" speed="1.00" length="4.24" width="2.00" shape="122.93,939.71 122.93,941.71 124.93,943.71 126.93,943.71 126.82,942.49 126.49,941.49 125.93,940.71 125.15,940.15 124.15,939.82"/>
    </edge>
    <edge id=":B7_w1" function="walkingarea">
        <lane id=":B7_w1_0" index="0" allow="pedestrian" speed="1.00" length="4.24" width="2.00" shape="133.33,943.71 135.33,943.71 137.33,941.71 137.33,939.71 136.11,939.82 135.11,940.15 134.33,940.71 133.77,941.49 133.44,942.49"/>
    </edge>
    <edge id=":B7_w2" function="walkingarea">
        <lane id=":B7_w2_0" index="0" allow="pedestrian" speed="1.00" length="4.24" width="2.00" shape="137.33,933.31 137.33,931.31 135.33,929.31 133.33,929.31 133.44,930.53 133.77,931.53 134.33,932.31 135.11,932.87 136.11,933.20"/>
    </edge>
    <edge id=":B7_w3" function="walkingarea">
        <lane id=":B7_w3_0" index="0" allow="pedestrian" speed="1.00" length="4.24" width="2.00" shape="126.93,929.31 124.93,929.31 122.93,931.31 122.93,933.31 124.15,933.20 125.15,932.87 125.93,932.31 126.49,931.53 126.82,930.53"/>
    </edge>
    <edge id=":B8_0" function="internal">
        <lane id=":B8_0_0" index="0" disallow="pedestrian" speed="13.89" length="10.20" shape="128.53,1073.34 128.53,1063.14"/>
        <lane id=":B8_0_1" index="1" disallow="pedestrian" speed="13.89" length="10.20" shape="131.73,1073.34 131.73,1063.14"/>
    </edge>
    <edge id=":B8_2" function="internal">
        <lane id=":B8_2_0" index="0" disallow="pedestrian" speed="6.24" length="8.23" shape="136.83,1068.24 134.60,1067.92 133.01,1066.97 132.05,1065.37 131.73,1063.14"/>
    </edge>
    <edge id=":B8_w0" function="walkingarea">
        <lane id=":B8_w0_0" index="0" allow="pedestrian" speed="1.00" length="5.87" width="2.00" shape="126.93,1063.14 124.93,1063.14 123.43,1064.64 123.43,1066.64 123.43,1066.64 123.43,1068.64 124.93,1073.34 126.93,1073.34"/>
    </edge>
    <edge id=":B8_w1" function="walkingarea">
        <lane id=":B8_w1_0" index="0" allow="pedestrian" speed="1.00" length="3.54" width="2.00" shape="133.33,1073.34 135.33,1073.34 136.83,1071.84 136.83,1069.84 135.76,1069.94 134.89,1070.23 134.21,1070.71 133.72,1071.40 133.43,1072.27"/>
    </edge>
    <edge id=":B8_w2" function="walkingarea">
        <lane id=":B8_w2_0" index="0" allow="pedestrian" speed="1.00" length="3.54" width="2.00" shape="136.83,1066.64 136.83,1064.64 135.33,1063.14 133.33,1063.14 133.43,1064.21 133.72,1065.08 134.21,1065.77 134.89,1066.25 135.76,1066.54"/>
    </edge>
    <edge id=":B9_0" function="internal">
        <lane id=":B9_0_0" index="0" disallow="pedestrian" speed="13.89" length="14.40" shape="128.53,1203.97 128.53,1189.57"/>
        <lane id=":B9_0_1" index="1" disallow="pedestrian" speed="13.89" length="14.40" shape="131.73,1203.97 131.73,1189.57"/>
    </edge>
    <edge id=":B9_2" function="internal">
        <lane id=":B9_2_0" index="0" disallow="pedestrian" speed="6.51" length="9.03" shape="131.73,1203.97 132.08,1201.52 133.13,1199.77 134.88,1198.72 137.33,1198.37"/>
    </edge>
    <edge id=":B9_3" function="internal">
        <lane id=":B9_3_0" index="0" disallow="pedestrian" speed="6.51" length="9.03" shape="122.93,1195.17 125.38,1194.82 127.13,1193.77 128.18,1192.02 128.53,1189.57"/>
    </edge>
    <edge id=":B9_4" function="internal">
        <lane id=":B9_4_0" index="0" disallow="pedestrian" speed="13.89" length="14.40" shape="122.93,1195.17 137.33,1195.17"/>
        <lane id=":B9_4_1" index="1" disallow="pedestrian" speed="13.89" length="14.40" shape="122.93,1198.37 137.33,1198.37"/>
    </edge>
    <edge id=":B9_w0" function="walkingarea">
        <lane id=":B9_w0_0" index="0" allow="pedestrian" speed="1.00" length="4.24" width="2.00" shape="122.93,1199.97 122.93,1201.97 124.93,1203.97 126.93,1203.97 126.82,1202.75 126.49,1201.75 125.93,1200.97 125.15,1200.41 124.15,1200.08"/>
    </edge>
    <edge id=":B9_w1" function="walkingarea">
        <lane id=":B9_w1_0" index="0" allow="pedestrian" speed="1.00" length="4.24" width="2.00" shape="133.33,1203.97 135.33,1203.97 137.33,1201.97 137.33,1199.97 136.11,1200.08 135.11,1200.41 134.33,1200.97 133.77,1201.75 133.44,1202.75"/>
    </edge>
    <edge id=":B9_w2" function="walkingarea">
        <lane id=":B9_w2_0" index="0" allow="pedestrian" speed="1.00" length="4.24" width="2.00" shape="137.33,1193.57 137.33,1191.57 135.33,1189.57 133.33,1189.57 133.44,1190.79 133.77,1191.79 134.33,1192.57 135.11,1193.13 136.11,1193.46"/>
    </edge>
    <edge id=":B9_w3" function="walkingarea">
        <lane id=":B9_w3_0" index="0" allow="pedestrian" speed="1.00" length="4.24" width="2.00" shape="126.93,1189.57 124.93,1189.57 122.93,1191.57 122.93,1193.57 124.15,1193.46 125.15,1193.13 125.93,1192.57 126.49,1191.79 126.82,1190.79"/>
    </edge>
    <edge id=":C0_w0" function="walkingarea">
        <lane id=":C0_w0_0" index="0" allow="pedestrian" speed="1.00" length="2.00" width="2.00" shape="266.66,0.00 268.66,0.00 264.66,0.00 266.66,0.00"/>
    </edge>
    <edge id=":C1_0" function="internal">
        <lane id=":C1_0_0" index="0" disallow="pedestrian" speed="13.89" length="10.20" shape="263.16,128.53 273.36,128.53"/>
        <lane id=":C1_0_1" index="1" disallow="pedestrian" speed="13.89" length="10.20" shape="263.16,131.73 273.36,131.73"/>
    </edge>
    <edge id=":C1_2" function="internal">
        <lane id=":C1_2_0" index="0" disallow="pedestrian" speed="6.24" length="8.23" shape="263.16,131.73 265.39,132.05 266.99,133.01 267.94,134.60 268.26,136.83"/>
    </edge>
    <edge id=":C1_w0" function="walkingarea">
        <lane id=":C1_w0_0" index="0" allow="pedestrian" speed="1.00" length="3.54" width="2.00" shape="263.16,133.33 263.16,135.33 264.66,136.83 266.66,136.83 266.56,135.76 266.27,134.89 265.79,134.21 265.10,133.72 264.23,133.43"/>
    </edge>
    <edge id=":C1_w1" function="walkingarea">
        <lane id=":C1_w1_0" index="0" allow="pedestrian" speed="1.00" length="3.54" width="2.00" shape="269.86,136.83 271.86,136.83 273.36,135.33 273.36,133.33 272.29,133.43 271.42,133.72 270.74,134.21 270.25,134.89 269.96,135.76"/>
    </edge>
    <edge id=":C1_w2" function="walkingarea">
        <lane id=":C1_w2_0" index="0" allow="pedestrian" speed="1.00" length="5.87" width="2.00" shape="273.36,126.93 273.36,124.93 268.66,123.43 266.66,123.43 266.66,123.43 264.66,123.43 263.16,124.93 263.16,126.93"/>
    </edge>
    <edge id=":C10_0" function="internal">
        <lane id=":C10_0_0" index="0" allow="pedestrian" speed="2.78" length="2.92" width="2.00" shape="265.66,1339.80 266.16,1339.05 266.66,1338.80 267.16,1339.05 267.66,1339.80"/>
    </edge>
    <edge id=":C10_1" function="internal">
        <lane id=":C10_1_0" index="0" disallow="pedestrian" speed="2.78" length="8.14" width="3.00" shape="268.26,1329.80 267.94,1331.99 266.99,1333.55 265.39,1334.49 263.16,1334.80"/>
    </edge>
    <edge id=":C10_w0" function="walkingarea">
        <lane id=":C10_w0_0" index="0" allow="pedestrian" speed="1.00" length="7.56" width="2.00" shape="263.16,1336.30 263.16,1338.30 264.66,1339.80 266.66,1339.80 266.66,1339.80 268.66,1339.80 273.36,1335.30 273.36,1333.30 273.36,1333.30 273.36,1331.30 271.86,1329.80 269.86,1329.80 269.67,1331.79 269.12,1333.41 268.19,1334.68 266.88,1335.58 265.21,1336.12"/>
    </edge>
    <edge id=":C10_w1" function="walkingarea">
        <lane id=":C10_w1_0" index="0" allow="pedestrian" speed="1.00" length="3.54" width="2.00" shape="266.66,1329.80 264.66,1329.80 263.16,1331.30 263.16,1333.30 264.23,1333.20 265.10,1332.91 265.79,1332.43 266.27,1331.74 266.56,1330.87"/>
    </edge>
    <edge id=":C2_0" function="internal">
        <lane id=":C2_0_0" index="0" disallow="pedestrian" speed="2.78" length="14.19" shape="265.06,273.86 265.61,270.01 267.26,267.26 270.01,265.61 273.86,265.06"/>
    </edge>
    <edge id=":C2_1" function="internal">
        <lane id=":C2_1_0" index="0" disallow="pedestrian" speed="2.78" length="14.19" shape="268.26,259.46 267.71,263.31 266.06,266.06 263.31,267.71 259.46,268.26"/>
    </edge>
    <edge id=":C2_w0" function="walkingarea">
        <lane id=":C2_w0_0" index="0" allow="pedestrian" speed="1.00" length="4.24" width="2.00" shape="259.46,269.86 259.46,271.86 261.46,273.86 263.46,273.86 263.35,272.64 263.02,271.64 262.46,270.86 261.68,270.30 260.68,269.97"/>
    </edge>
    <edge id=":C2_w1" function="walkingarea">
        <lane id=":C2_w1_0" index="0" allow="pedestrian" speed="1.00" length="8.77" width="2.00" shape="266.66,273.86 268.66,273.86 273.86,268.66 273.86,266.66 271.66,266.86 269.86,267.46 268.46,268.46 267.46,269.86 266.86,271.66"/>
    </edge>
    <edge id=":C2_w2" function="walkingarea">
        <lane id=":C2_w2_0" index="0" allow="pedestrian" speed="1.00" length="4.24" width="2.00" shape="273.86,263.46 273.86,261.46 271.86,259.46 269.86,259.46 269.97,260.68 270.30,261.68 270.86,262.46 271.64,263.02 272.64,263.35"/>
    </edge>
    <edge id=":C2_w3" function="walkingarea">
        <lane id=":C2_w3_0" index="0" allow="pedestrian" speed="1.00" length="8.77" width="2.00" shape="266.66,259.46 264.66,259.46 259.46,264.66 259.46,266.66 261.66,266.46 263.46,265.86 264.86,264.86 265.86,263.46 266.46,261.66"/>
    </edge>
    <edge id=":C3_0" function="internal">
        <lane id=":C3_0_0" index="0" disallow="all" speed="2.78" length="3.80" shape="265.66,410.39 266.31,409.42 266.96,409.09 267.61,409.41 268.26,410.39"/>
    </edge>
    <edge id=":C3_1" function="internal">
        <lane id=":C3_1_0" index="0" disallow="pedestrian" speed="6.51" length="9.03" shape="273.86,404.79 271.41,405.14 269.66,406.19 268.61,407.94 268.26,410.39"/>
    </edge>
    <edge id=":C3_2" function="internal">
        <lane id=":C3_2_0" index="0" disallow="pedestrian" speed="13.89" length="13.90" shape="273.86,404.79 259.96,404.79"/>
        <lane id=":C3_2_1" index="1" disallow="pedestrian" speed="13.89" length="13.90" shape="273.86,401.59 259.96,401.59"/>
    </edge>
    <edge id=":C3_4" function="internal">
        <lane id=":C3_4_0" index="0" disallow="pedestrian" speed="7.33" length="11.73" shape="273.86,401.59 270.01,401.24 267.26,400.19 265.61,398.44 265.06,395.99"/>
    </edge>
    <edge id=":C3_5" function="internal">
        <lane id=":C3_5_0" index="0" disallow="all" speed="2.78" length="3.80" shape="267.66,395.99 267.01,396.96 266.36,397.29 265.71,396.96 265.06,395.99"/>
    </edge>
    <edge id=":C3_w0" function="walkingarea">
        <lane id=":C3_w0_0" index="0" allow="pedestrian" speed="1.00" length="6.44" width="2.00" shape="259.96,406.39 259.96,408.39 264.66,410.39 266.66,410.39 266.47,409.17 265.92,408.17 264.99,407.39 263.68,406.83 262.01,406.50"/>
    </edge>
    <edge id=":C3_w1" function="walkingarea">
        <lane id=":C3_w1_0" index="0" allow="pedestrian" speed="1.00" length="4.24" width="2.00" shape="269.86,410.39 271.86,410.39 273.86,408.39 273.86,406.39 272.64,406.50 271.64,406.83 270.86,407.39 270.30,408.17 269.97,409.17"/>
    </edge>
    <edge id=":C3_w2" function="walkingarea">
        <lane id=":C3_w2_0" index="0" allow="pedestrian" speed="1.00" length="6.89" width="2.00" shape="273.86,399.99 273.86,397.99 268.66,395.99 266.66,395.99 266.86,397.21 267.46,398.21 268.46,398.99 269.86,399.55 271.66,399.88"/>
    </edge>
    <edge id=":C3_w3" function="walkingarea">
        <lane id=":C3_w3_0" index="0" allow="pedestrian" speed="1.00" length="3.91" width="2.00" shape="263.46,395.99 261.46,395.99 259.96,397.99 259.96,399.99 261.03,399.88 261.90,399.55 262.58,398.99 263.07,398.21 263.36,397.21"/>
    </edge>
    <edge id=":C4_0" function="internal">
        <lane id=":C4_0_0" index="0" disallow="pedestrian" speed="2.78" length="9.03" shape="265.06,540.52 264.71,538.07 263.66,536.32 261.91,535.27 259.46,534.92"/>
    </edge>
    <edge id=":C4_1" function="internal">
        <lane id=":C4_1_0" index="0" disallow="pedestrian" speed="2.78" length="9.03" shape="268.26,526.12 268.61,528.57 269.66,530.32 271.41,531.37 273.86,531.72"/>
    </edge>
    <edge id=":C4_w0" function="walkingarea">
        <lane id=":C4_w0_0" index="0" allow="pedestrian" speed="1.00" length="4.24" width="2.00" shape="259.46,536.52 259.46,538.52 261.46,540.52 263.46,540.52 263.35,539.30 263.02,538.30 262.46,537.52 261.68,536.96 260.68,536.63"/>
    </edge>