<?xml version="1.0" encoding="UTF-8"?>
<!-- generated on 2020-12-09 03:21:03.204116 by randomTrips.py v1_7_0+0000-714814baed
  options: -n .\data/grid01-bcn_50.net.xml <doubleminus>prefix=21h <doubleminus>fringe-factor 100 -b 75600 -e 79200 -p0.44983131325752845 <doubleminus>binomial 10 -odata/random/random_h_21-bcn_50.trips.rou.xml <doubleminus>edge-permission=passenger
-->
<routes xmlns:xsi="http://www.w3.org/2001/XMLSchema-instance" xsi:noNamespaceSchemaLocation="http://sumo.dlr.de/xsd/routes_file.xsd">
    <trip id="21h0" depart="75600.00" from="B11B10" to="B4A4"/>
    <trip id="21h1" depart="75600.00" from="E0E1" to="B10A10"/>
    <trip id="21h2" depart="75600.00" from="G5G6" to="B10A10"/>
    <trip id="21h3" depart="75600.00" from="I8I9" to="H1H0"/>
    <trip id="21h4" depart="75600.00" from="H11H10" to="K1L1"/>
    <trip id="21h5" depart="75600.00" from="L10K10" to="K10K11"/>
    <trip id="21h6" depart="75601.00" from="L4K4" to="D10C10"/>
    <trip id="21h7" depart="75601.00" from="A1B1" to="K1L1"/>
    <trip id="21h8" depart="75602.00" from="B11B10" to="B4A4"/>
    <trip id="21h9" depart="75602.00" from="B11B10" to="B10A10"/>
    <trip id="21h10" depart="75603.00" from="B11B10" to="K7L7"/>
    <trip id="21h11" depart="75603.00" from="K0K1" to="B1B0"/>
    <trip id="21h12" depart="75604.00" from="C0C1" to="B4A4"/>
    <trip id="21h13" depart="75604.00" from="L4K4" to="K4J4"/>
    <trip id="21h14" depart="75605.00" from="gneE7" to="G7G8"/>
    <trip id="21h15" depart="75605.00" from="A1B1" to="B1B0"/>
    <trip id="21h16" depart="75606.00" from="E0E1" to="gneE6"/>
    <trip id="21h17" depart="75606.00" from="K0K1" to="K10K11"/>
    <trip id="21h18" depart="75607.00" from="E0E1" to="E10E11"/>
    <trip id="21h19" depart="75607.00" from="L4K4" to="K1L1"/>
    <trip id="21h20" depart="75607.00" from="K0K1" to="H1H0"/>
    <trip id="21h21" depart="75608.00" from="C4B4" to="B10A10"/>
    <trip id="21h22" depart="75608.00" from="L10K10" to="K7L7"/>
    <trip id="21h23" depart="75608.00" from="F5E5" to="B10A10"/>
    <trip id="21h24" depart="75609.00" from="F10E10" to="H1H0"/>
    <trip id="21h25" depart="75609.00" from="H11H10" to="K10K11"/>
    <trip id="21h26" depart="75609.00" from="B8A8" to="gneE5"/>
    <trip id="21h27" depart="75610.00" from="B11B10" to="D1D0"/>
    <trip id="21h28" depart="75610.00" from="A1B1" to="H9H8"/>
    <trip id="21h29" depart="75610.00" from="B11B10" to="J7K7"/>
    <trip id="21h30" depart="75610.00" from="A7B7" to="K7L7"/>
    <trip id="21h31" depart="75611.00" from="A1B1" to="E10E11"/>
    <trip id="21h32" depart="75611.00" from="E0E1" to="D1D2"/>
    <trip id="21h33" depart="75612.00" from="E0E1" to="E10E11"/>
    <trip id="21h34" depart="75612.00" from="gneE9" to="K1L1"/>
    <trip id="21h35" depart="75613.00" from="F5E5" to="B4A4"/>
    <trip id="21h36" depart="75613.00" from="E0E1" to="L2K2"/>
    <trip id="21h37" depart="75614.00" from="B11B10" to="K7L7"/>
    <trip id="21h38" depart="75614.00" from="H11H10" to="G3H3"/>
    <trip id="21h39" depart="75615.00" from="L4K4" to="B10A10"/>
    <trip id="21h40" depart="75615.00" from="H11H10" to="K10K11"/>
    <trip id="21h41" depart="75615.00" from="L4K4" to="B4A4"/>
    <trip id="21h42" depart="75616.00" from="K0K1" to="B4A4"/>
    <trip id="21h43" depart="75616.00" from="E2E3" to="gneE8"/>
    <trip id="21h44" depart="75616.00" from="B11B10" to="B4A4"/>
    <trip id="21h45" depart="75617.00" from="L10K10" to="K10K11"/>
    <trip id="21h46" depart="75617.00" from="L10K10" to="B4A4"/>
    <trip id="21h47" depart="75618.00" from="A7B7" to="B1B0"/>
    <trip id="21h48" depart="75618.00" from="I10I11" to="B4A4"/>
    <trip id="21h49" depart="75618.00" from="E0E1" to="B4A4"/>
    <trip id="21h50" depart="75619.00" from="K0K1" to="I2I1"/>
    <trip id="21h51" depart="75619.00" from="A1B1" to="K7L7"/>
    <trip id="21h52" depart="75620.00" from="A7B7" to="B6B5"/>
    <trip id="21h53" depart="75620.00" from="B11B10" to="B1B0"/>
    <trip id="21h54" depart="75621.00" from="L4K4" to="K1L1"/>
    <trip id="21h55" depart="75621.00" from="K0K1" to="C8C7"/>
    <trip id="21h56" depart="75622.00" from="L10K10" to="K1L1"/>
    <trip id="21h57" depart="75622.00" from="A7B7" to="C5D5"/>
    <trip id="21h58" depart="75623.00" from="L4K4" to="B1B0"/>
    <trip id="21h59" depart="75624.00" from="E0E1" to="K10K11"/>
    <trip id="21h60" depart="75624.00" from="L4K4" to="H1H0"/>
    <trip id="21h61" depart="75625.00" from="J5K5" to="C6C7"/>
    <trip id="21h62" depart="75626.00" from="E0E1" to="K7L7"/>
    <trip id="21h63" depart="75626.00" from="B11B10" to="E10E11"/>
    <trip id="21h64" depart="75627.00" from="E9F9" to="K7L7"/>
    <trip id="21h65" depart="75627.00" from="A1B1" to="H10G10"/>
    <trip id="21h66" depart="75628.00" from="A1B1" to="B4A4"/>
    <trip id="21h67" depart="75628.00" from="E0E1" to="H8H7"/>
    <trip id="21h68" depart="75628.00" from="K0K1" to="G10F10"/>
    <trip id="21h69" depart="75628.00" from="K0K1" to="K10K11"/>
    <trip id="21h70" depart="75629.00" from="E0E1" to="B1B0"/>
    <trip id="21h71" depart="75629.00" from="B11B10" to="K1L1"/>
    <trip id="21h72" depart="75631.00" from="B11B10" to="B4A4"/>
    <trip id="21h73" depart="75631.00" from="B11B10" to="K10K11"/>
    <trip id="21h74" depart="75632.00" from="E0E1" to="H1H0"/>
    <trip id="21h75" depart="75632.00" from="E0E1" to="K7L7"/>
    <trip id="21h76" depart="75632.00" from="D7E7" to="K10K11"/>
    <trip id="21h77" depart="75633.00" from="B11B10" to="E10E11"/>
    <trip id="21h78" depart="75633.00" from="D10C10" to="K10K11"/>
    <trip id="21h79" depart="75633.00" from="E6F6" to="B1B0"/>
    <trip id="21h80" depart="75634.00" from="E0E1" to="H1H0"/>
    <trip id="21h81" depart="75634.00" from="I4I5" to="B1B0"/>
    <trip id="21h82" depart="75634.00" from="E0E1" to="B4A4"/>
    <trip id="21h83" depart="75635.00" from="A1B1" to="H1H0"/>
    <trip id="21h84" depart="75635.00" from="A1B1" to="B1B0"/>
    <trip id="21h85" depart="75636.00" from="J8I8" to="H1H0"/>
    <trip id="21h86" depart="75636.00" from="K0K1" to="K10K11"/>
    <trip id="21h87" depart="75636.00" from="H11H10" to="K10K11"/>
    <trip id="21h88" depart="75636.00" from="L10K10" to="K7L7"/>
    <trip id="21h89" depart="75636.00" from="A1B1" to="B8A8"/>
    <trip id="21h90" depart="75636.00" from="K0K1" to="H7I7"/>
    <trip id="21h91" depart="75637.00" from="K10J10" to="K1L1"/>
    <trip id="21h92" depart="75637.00" from="L4K4" to="K1L1"/>
    <trip id="21h93" depart="75638.00" from="L4K4" to="I10I9"/>
    <trip id="21h94" depart="75639.00" from="L10K10" to="B4A4"/>
    <trip id="21h95" depart="75639.00" from="L10K10" to="B1B0"/>
    <trip id="21h96" depart="75640.00" from="L10K10" to="D1E1"/>
    <trip id="21h97" depart="75640.00" from="L4K4" to="B10A10"/>
    <trip id="21h98" depart="75641.00" from="B11B10" to="K10K11"/>
    <trip id="21h99" depart="75642.00" from="A7B7" to="B1B0"/>
    <trip id="21h100" depart="75642.00" from="B11B10" to="F4F3"/>
    <trip id="21h101" depart="75643.00" from="A7B7" to="B4A4"/>
    <trip id="21h102" depart="75643.00" from="A1B1" to="H1H0"/>
    <trip id="21h103" depart="75643.00" from="L10K10" to="F8E8"/>
    <trip id="21h104" depart="75644.00" from="A1B1" to="K7L7"/>
    <trip id="21h105" depart="75644.00" from="H8H7" to="B10A10"/>
    <trip id="21h106" depart="75644.00" from="H11H10" to="B4A4"/>
    <trip id="21h107" depart="75644.00" from="K0K1" to="H1H0"/>
    <trip id="21h108" depart="75646.00" from="B11B10" to="J3J2"/>
    <trip id="21h109" depart="75646.00" from="A7B7" to="B10A10"/>
    <trip id="21h110" depart="75646.00" from="E0E1" to="H1H0"/>
    <trip id="21h111" depart="75648.00" from="A7B7" to="B5C5"/>
    <trip id="21h112" depart="75648.00" from="K0K1" to="K10K11"/>
    <trip id="21h113" depart="75648.00" from="A1B1" to="E10E11"/>
    <trip id="21h114" depart="75649.00" from="L4K4" to="K1L1"/>
    <trip id="21h115" depart="75649.00" from="K0K1" to="E9D9"/>
    <trip id="21h116" depart="75650.00" from="H11H10" to="I10I11"/>
    <trip id="21h117" depart="75650.00" from="D6C6" to="C8C9"/>
    <trip id="21h118" depart="75652.00" from="E0E1" to="K10K11"/>
    <trip id="21h119" depart="75652.00" from="H11H10" to="K7L7"/>
    <trip id="21h120" depart="75652.00" from="L4K4" to="H1H0"/>
    <trip id="21h121" depart="75653.00" from="H11H10" to="H1H0"/>
    <trip id="21h122" depart="75653.00" from="gneE2" to="K7L7"/>
    <trip id="21h123" depart="75653.00" from="L10K10" to="G1H1"/>
    <trip id="21h124" depart="75655.00" from="H11H10" to="D4C4"/>
    <trip id="21h125" depart="75656.00" from="K0K1" to="H1H0"/>
    <trip id="21h126" depart="75656.00" from="K0K1" to="K10K11"/>
    <trip id="21h127" depart="75657.00" from="G3H3" to="H1H0"/>
    <trip id="21h128" depart="75658.00" from="E8E9" to="K7L7"/>
    <trip id="21h129" depart="75659.00" from="A1B1" to="H9H8"/>
    <trip id="21h130" depart="75659.00" from="I10H10" to="K2K3"/>
    <trip id="21h131" depart="75660.00" from="L10K10" to="B4A4"/>
    <trip id="21h132" depart="75660.00" from="H11H10" to="H1H0"/>
    <trip id="21h133" depart="75660.00" from="A1B1" to="K1L1"/>
    <trip id="21h134" depart="75661.00" from="E3F3" to="B4A4"/>
    <trip id="21h135" depart="75661.00" from="L10K10" to="K7L7"/>
    <trip id="21h136" depart="75661.00" from="E0E1" to="D5D4"/>
    <trip id="21h137" depart="75662.00" from="E0E1" to="F4E4"/>
    <trip id="21h138" depart="75663.00" from="H11H10" to="G1G0"/>
    <trip id="21h139" depart="75665.00" from="B11B10" to="K10K11"/>
    <trip id="21h140" depart="75665.00" from="A7B7" to="H1H0"/>
    <trip id="21h141" depart="75666.00" from="L4K4" to="B1B0"/>
    <trip id="21h142" depart="75667.00" from="H11H10" to="E10E11"/>
    <trip id="21h143" depart="75667.00" from="B11B10" to="B10A10"/>
    <trip id="21h144" depart="75668.00" from="A1B1" to="K1L1"/>
    <trip id="21h145" depart="75668.00" from="L4K4" to="B4B3"/>
    <trip id="21h146" depart="75668.00" from="L2K2" to="B1B0"/>
    <trip id="21h147" depart="75669.00" from="E0E1" to="B10A10"/>
    <trip id="21h148" depart="75669.00" from="E0E1" to="E10E11"/>
    <trip id="21h149" depart="75670.00" from="K0K1" to="H1H0"/>
    <trip id="21h150" depart="75670.00" from="A7B7" to="K1L1"/>
    <trip id="21h151" depart="75671.00" from="K9K10" to="B4A4"/>
    <trip id="21h152" depart="75671.00" from="H11H10" to="B10A10"/>
    <trip id="21h153" depart="75671.00" from="B11B10" to="K1L1"/>
    <trip id="21h154" depart="75671.00" from="L4K4" to="A9B9"/>
    <trip id="21h155" depart="75671.00" from="A7B7" to="B4A4"/>
    <trip id="21h156" depart="75671.00" from="J3J4" to="B10A10"/>
    <trip id="21h157" depart="75672.00" from="L10K10" to="B4A4"/>
    <trip id="21h158" depart="75672.00" from="A1B1" to="K10K11"/>
    <trip id="21h159" depart="75672.00" from="G4F4" to="K7L7"/>
    <trip id="21h160" depart="75672.00" from="K6L6" to="K1L1"/>
    <trip id="21h161" depart="75673.00" from="F2E2" to="E10E11"/>
    <trip id="21h162" depart="75673.00" from="A1B1" to="H1H0"/>
    <trip id="21h163" depart="75673.00" from="B11B10" to="I10H10"/>
    <trip id="21h164" depart="75674.00" from="K0K1" to="K1L1"/>
    <trip id="21h165" depart="75674.00" from="E0E1" to="B4A4"/>
    <trip id="21h166" depart="75675.00" from="E0E1" to="J6I6"/>
    <trip id="21h167" depart="75675.00" from="L4K4" to="B10A10"/>
    <trip id="21h168" depart="75675.00" from="A1B1" to="K10K11"/>
    <trip id="21h169" depart="75676.00" from="D8E8" to="J6I6"/>
    <trip id="21h170" depart="75677.00" from="J1K1" to="B4A4"/>
    <trip id="21h171" depart="75677.00" from="L10K10" to="E10E11"/>
    <trip id="21h172" depart="75678.00" from="L4K4" to="K1L1"/>
    <trip id="21h173" depart="75678.00" from="K0K1" to="B6B5"/>
    <trip id="21h174" depart="75678.00" from="L10K10" to="H1H0"/>
    <trip id="21h175" depart="75678.00" from="I10H10" to="B10A10"/>
    <trip id="21h176" depart="75678.00" from="E0E1" to="D2C2"/>
    <trip id="21h177" depart="75679.00" from="A1B1" to="B1B0"/>
    <trip id="21h178" depart="75680.00" from="E0E1" to="B4A4"/>
    <trip id="21h179" depart="75680.00" from="E0E1" to="H1H0"/>
    <trip id="21h180" depart="75680.00" from="B2B1" to="B4A4"/>
    <trip id="21h181" depart="75680.00" from="B11B10" to="C5D5"/>
    <trip id="21h182" depart="75681.00" from="K0K1" to="B1B0"/>
    <trip id="21h183" depart="75681.00" from="L10K10" to="B10A10"/>
    <trip id="21h184" depart="75681.00" from="L4K4" to="K1L1"/>
    <trip id="21h185" depart="75682.00" from="A1B1" to="C4B4"/>
    <trip id="21h186" depart="75682.00" from="L10K10" to="B4A4"/>
    <trip id="21h187" depart="75683.00" from="G7H7" to="B1B0"/>
    <trip id="21h188" depart="75684.00" from="A7B7" to="H1H0"/>
    <trip id="21h189" depart="75684.00" from="K1K2" to="G10F10"/>
    <trip id="21h190" depart="75685.00" from="A1B1" to="E10E11"/>
    <trip id="21h191" depart="75685.00" from="G6H6" to="B7C7"/>
    <trip id="21h192" depart="75686.00" from="L10K10" to="B10A10"/>
    <trip id="21h193" depart="75687.00" from="A1B1" to="B1B0"/>
    <trip id="21h194" depart="75687.00" from="B11B10" to="E10E11"/>
    <trip id="21h195" depart="75688.00" from="E0E1" to="B4A4"/>
    <trip id="21h196" depart="75688.00" from="A1B1" to="K10K11"/>
    <trip id="21h197" depart="75689.00" from="D7D6" to="K7L7"/>
    <trip id="21h198" depart="75691.00" from="B11B10" to="K7L7"/>
    <trip id="21h199" depart="75691.00" from="A1B1" to="K1L1"/>
    <trip id="21h200" depart="75691.00" from="K0K1" to="K1L1"/>
    <trip id="21h201" depart="75692.00" from="D11D10" to="K10K11"/>
    <trip id="21h202" depart="75692.00" from="E0E1" to="B1B0"/>
    <trip id="21h203" depart="75692.00" from="E0E1" to="E10E11"/>
    <trip id="21h204" depart="75694.00" from="B11B10" to="I4H4"/>
    <trip id="21h205" depart="75695.00" from="L10K10" to="K1L1"/>
    <trip id="21h206" depart="75695.00" from="E0E1" to="K7L7"/>
    <trip id="21h207" depart="75695.00" from="E0E1" to="D7D6"/>
    <trip id="21h208" depart="75695.00" from="A1B1" to="G3H3"/>
    <trip id="21h209" depart="75696.00" from="L4K4" to="K1L1"/>
    <trip id="21h210" depart="75696.00" from="B11B10" to="K1L1"/>
    <trip id="21h211" depart="75696.00" from="K0K1" to="E10E11"/>
    <trip id="21h212" depart="75696.00" from="A1B1" to="B4A4"/>
    <trip id="21h213" depart="75697.00" from="B11B10" to="B4A4"/>
    <trip id="21h214" depart="75697.00" from="E0E1" to="K1L1"/>
    <trip id="21h215" depart="75697.00" from="L4K4" to="H1H0"/>
    <trip id="21h216" depart="75697.00" from="H10G10" to="B4A4"/>
    <trip id="21h217" depart="75697.00" from="E0E1" to="H1H0"/>
    <trip id="21h218" depart="75698.00" from="L4K4" to="B10A10"/>
    <trip id="21h219" depart="75699.00" from="L10K10" to="D4C4"/>
    <trip id="21h220" depart="75699.00" from="H11H10" to="K1L1"/>
    <trip id="21h221" depart="75699.00" from="K4K5" to="E6D6"/>
    <trip id="21h222" depart="75700.00" from="K3K4" to="E2E3"/>
    <trip id="21h223" depart="75700.00" from="A9B9" to="B10A10"/>
    <trip id="21h224" depart="75701.00" from="E0E1" to="K1L1"/>
    <trip id="21h225" depart="75701.00" from="E0E1" to="K7L7"/>
    <trip id="21h226" depart="75702.00" from="H11H10" to="K1L1"/>
    <trip id="21h227" depart="75702.00" from="J3J4" to="B5B4"/>
    <trip id="21h228" depart="75703.00" from="L10K10" to="D8C8"/>
    <trip id="21h229" depart="75703.00" from="I2I1" to="E10E11"/>
    <trip id="21h230" depart="75704.00" from="H11H10" to="K1L1"/>
    <trip id="21h231" depart="75704.00" from="A1B1" to="K1L1"/>
    <trip id="21h232" depart="75705.00" from="K0K1" to="G2F2"/>
    <trip id="21h233" depart="75706.00" from="L10K10" to="E10E11"/>
    <trip id="21h234" depart="75707.00" from="K0K1" to="K1L1"/>
    <trip id="21h235" depart="75707.00" from="H11H10" to="K7L7"/>
    <trip id="21h236" depart="75708.00" from="B11B10" to="B1B0"/>
    <trip id="21h237" depart="75708.00" from="H11H10" to="E10E11"/>
    <trip id="21h238" depart="75708.00" from="B7B6" to="gneE9"/>
    <trip id="21h239" depart="75709.00" from="L4K4" to="I4I3"/>
    <trip id="21h240" depart="75709.00" from="L4K4" to="E10E11"/>
    <trip id="21h241" depart="75710.00" from="A7B7" to="B1B0"/>
    <trip id="21h242" depart="75710.00" from="C3B3" to="K10K11"/>
    <trip id="21h243" depart="75710.00" from="B2C2" to="H1H0"/>
    <trip id="21h244" depart="75711.00" from="L4K4" to="B1B0"/>
    <trip id="21h245" depart="75711.00" from="A1B1" to="I4H4"/>
    <trip id="21h246" depart="75713.00" from="A1B1" to="E10E11"/>
    <trip id="21h247" depart="75713.00" from="H11H10" to="B8B7"/>
    <trip id="21h248" depart="75713.00" from="E0E1" to="H1H0"/>
    <trip id="21h249" depart="75714.00" from="B11B10" to="E10E11"/>
    <trip id="21h250" depart="75714.00" from="C5C6" to="H1H0"/>
    <trip id="21h251" depart="75715.00" from="L4K4" to="G5G6"/>
    <trip id="21h252" depart="75715.00" from="D8C8" to="B10A10"/>
    <trip id="21h253" depart="75717.00" from="H11H10" to="B10A10"/>
    <trip id="21h254" depart="75717.00" from="L4K4" to="E10E11"/>
    <trip id="21h255" depart="75718.00" from="G7G8" to="G2G3"/>
    <trip id="21h256" depart="75718.00" from="A7B7" to="C8C9"/>
    <trip id="21h257" depart="75719.00" from="gneE10" to="K10K11"/>
    <trip id="21h258" depart="75720.00" from="F10E10" to="K7L7"/>
    <trip id="21h259" depart="75721.00" from="H8H7" to="H3H2"/>
    <trip id="21h260" depart="75721.00" from="K0K1" to="B10A10"/>
    <trip id="21h261" depart="75721.00" from="A1B1" to="B8C8"/>
    <trip id="21h262" depart="75721.00" from="K0K1" to="E10E11"/>
    <trip id="21h263" depart="75722.00" from="A7B7" to="B4A4"/>
    <trip id="21h264" depart="75722.00" from="L4K4" to="D2E2"/>
    <trip id="21h265" depart="75723.00" from="B11B10" to="H1H0"/>
    <trip id="21h266" depart="75723.00" from="K0K1" to="C10C11"/>
    <trip id="21h267" depart="75724.00" from="K0K1" to="E10E11"/>
    <trip id="21h268" depart="75725.00" from="H11H10" to="K7L7"/>
    <trip id="21h269" depart="75725.00" from="H1I1" to="H1H0"/>
    <trip id="21h270" depart="75726.00" from="E0E1" to="K10K11"/>
    <trip id="21h271" depart="75726.00" from="K0K1" to="B10A10"/>
    <trip id="21h272" depart="75727.00" from="L4K4" to="C2C3"/>
    <trip id="21h273" depart="75727.00" from="H11H10" to="H1H0"/>
    <trip id="21h274" depart="75727.00" from="L10K10" to="B1B0"/>
    <trip id="21h275" depart="75728.00" from="H11H10" to="B1B0"/>
    <trip id="21h276" depart="75729.00" from="A7B7" to="B1B0"/>
    <trip id="21h277" depart="75729.00" from="K0K1" to="K1L1"/>
    <trip id="21h278" depart="75730.00" from="L10K10" to="K7L7"/>
    <trip id="21h279" depart="75730.00" from="J7K7" to="B1B0"/>
    <trip id="21h280" depart="75730.00" from="C3D3" to="B4A4"/>
    <trip id="21h281" depart="75731.00" from="J11J10" to="K10K11"/>
    <trip id="21h282" depart="75731.00" from="A7B7" to="B5B4"/>
    <trip id="21h283" depart="75731.00" from="L4K4" to="B4A4"/>
    <trip id="21h284" depart="75732.00" from="A7B7" to="B1B0"/>
    <trip id="21h285" depart="75732.00" from="B11B10" to="K10K11"/>
    <trip id="21h286" depart="75733.00" from="E0E1" to="K10K11"/>
    <trip id="21h287" depart="75733.00" from="H11H10" to="B10A10"/>
    <trip id="21h288" depart="75733.00" from="C5D5" to="H1H0"/>
    <trip id="21h289" depart="75733.00" from="B11B10" to="H1H0"/>
    <trip id="21h290" depart="75733.00" from="G7H7" to="K1L1"/>
    <trip id="21h291" depart="75734.00" from="E4D4" to="K1L1"/>
    <trip id="21h292" depart="75734.00" from="D4C4" to="B10A10"/>
    <trip id="21h293" depart="75735.00" from="L4K4" to="B10A10"/>
    <trip id="21h294" depart="75736.00" from="H11H10" to="H1H0"/>
    <trip id="21h295" depart="75737.00" from="A1B1" to="B4A4"/>
    <trip id="21h296" depart="75738.00" from="L10K10" to="E10E11"/>
    <trip id="21h297" depart="75738.00" from="B11B10" to="B10A10"/>
    <trip id="21h298" depart="75738.00" from="H11H10" to="K10K11"/>
    <trip id="21h299" depart="75738.00" from="K0K1" to="E10E11"/>
    <trip id="21h300" depart="75738.00" from="L10K10" to="B10A10"/>
    <trip id="21h301" depart="75739.00" from="J3J2" to="B4A4"/>
    <trip id="21h302" depart="75740.00" from="L4K4" to="K6J6"/>
    <trip id="21h303" depart="75741.00" from="E0E1" to="K10K11"/>
    <trip id="21h304" depart="75742.00" from="B11B10" to="B2B1"/>
    <trip id="21h305" depart="75742.00" from="K0K1" to="B1B0"/>
    <trip id="21h306" depart="75743.00" from="K0K1" to="K10K11"/>
    <trip id="21h307" depart="75743.00" from="L4K4" to="K7L7"/>
    <trip id="21h308" depart="75743.00" from="gneE9" to="F2E2"/>
    <trip id="21h309" depart="75744.00" from="L4K4" to="H1H0"/>
    <trip id="21h310" depart="75744.00" from="L4K4" to="E8E9"/>
    <trip id="21h311" depart="75745.00" from="A7B7" to="B4A4"/>
    <trip id="21h312" depart="75745.00" from="C6C7" to="E10E11"/>
    <trip id="21h313" depart="75746.00" from="L10K10" to="B1B0"/>
    <trip id="21h314" depart="75747.00" from="A1B1" to="K1L1"/>
    <trip id="21h315" depart="75748.00" from="G5G6" to="E10E11"/>
    <trip id="21h316" depart="75748.00" from="H11H10" to="B10A10"/>
    <trip id="21h317" depart="75749.00" from="L10K10" to="K10J10"/>
    <trip id="21h318" depart="75749.00" from="A1B1" to="B1B0"/>
    <trip id="21h319" depart="75749.00" from="H11H10" to="K1L1"/>
    <trip id="21h320" depart="75750.00" from="E0E1" to="H1H0"/>
    <trip id="21h321" depart="75751.00" from="A1B1" to="B1B0"/>
    <trip id="21h322" depart="75751.00" from="H11H10" to="B10A10"/>
    <trip id="21h323" depart="75751.00" from="L10K10" to="K7L7"/>
    <trip id="21h324" depart="75751.00" from="A1B1" to="K7L7"/>
    <trip id="21h325" depart="75752.00" from="L4K4" to="B9B8"/>
    <trip id="21h326" depart="75752.00" from="A7B7" to="B4A4"/>
    <trip id="21h327" depart="75753.00" from="gneE0" to="K10K11"/>
    <trip id="21h328" depart="75753.00" from="E0E1" to="K1L1"/>
    <trip id="21h329" depart="75754.00" from="B11B10" to="gneE2"/>
    <trip id="21h330" depart="75755.00" from="H2I2" to="K1L1"/>
    <trip id="21h331" depart="75755.00" from="A7B7" to="K10K11"/>
    <trip id="21h332" depart="75755.00" from="A1B1" to="B6B5"/>
    <trip id="21h333" depart="75755.00" from="A7B7" to="E10E11"/>
    <trip id="21h334" depart="75756.00" from="D8E8" to="B10A10"/>
    <trip id="21h335" depart="75756.00" from="L4K4" to="K7L7"/>
    <trip id="21h336" depart="75757.00" from="E0E1" to="B1B0"/>
    <trip id="21h337" depart="75757.00" from="E0E1" to="E10E11"/>
    <trip id="21h338" depart="75757.00" from="B11B10" to="B4A4"/>
    <trip id="21h339" depart="75757.00" from="A7B7" to="B4B3"/>
    <trip id="21h340" depart="75758.00" from="C2C1" to="K7L7"/>
    <trip id="21h341" depart="75759.00" from="B9B8" to="K7L7"/>
    <trip id="21h342" depart="75760.00" from="H11H10" to="H1H0"/>
    <trip id="21h343" depart="75761.00" from="gneE10" to="F2E2"/>
    <trip id="21h344" depart="75763.00" from="K0K1" to="J2I2"/>
    <trip id="21h345" depart="75763.00" from="L4K4" to="K10K11"/>
    <trip id="21h346" depart="75763.00" from="B11B10" to="G7H7"/>
    <trip id="21h347" depart="75764.00" from="A7B7" to="E10E11"/>
    <trip id="21h348" depart="75765.00" from="L4K4" to="B1B0"/>
    <trip id="21h349" depart="75765.00" from="F4E4" to="F10F11"/>
    <trip id="21h350" depart="75765.00" from="L10K10" to="I7J7"/>
    <trip id="21h351" depart="75766.00" from="L4K4" to="B4A4"/>
    <trip id="21h352" depart="75766.00" from="A7B7" to="H1H0"/>
    <trip id="21h353" depart="75766.00" from="I3J3" to="E10E11"/>
    <trip id="21h354" depart="75766.00" from="H11H10" to="B1B0"/>
    <trip id="21h355" depart="75767.00" from="K0K1" to="K1L1"/>
    <trip id="21h356" depart="75767.00" from="A7B7" to="K1L1"/>
    <trip id="21h357" depart="75767.00" from="C4C5" to="E1F1"/>
    <trip id="21h358" depart="75768.00" from="A7B7" to="B1B0"/>
    <trip id="21h359" depart="75769.00" from="K0K1" to="G7H7"/>
    <trip id="21h360" depart="75769.00" from="E0E1" to="B1B0"/>
    <trip id="21h361" depart="75769.00" from="B9B8" to="E10E11"/>
    <trip id="21h362" depart="75770.00" from="E0E1" to="B10A10"/>
    <trip id="21h363" depart="75770.00" from="L10K10" to="K7L7"/>
    <trip id="21h364" depart="75770.00" from="A1B1" to="K10K11"/>
    <trip id="21h365" depart="75771.00" from="E1F1" to="K10K11"/>
    <trip id="21h366" depart="75771.00" from="A7B7" to="K1L1"/>
    <trip id="21h367" depart="75771.00" from="K0K1" to="H1H0"/>
    <trip id="21h368" depart="75772.00" from="L10K10" to="K10K11"/>
    <trip id="21h369" depart="75773.00" from="A7B7" to="B4A4"/>
    <trip id="21h370" depart="75773.00" from="A1B1" to="D7D8"/>
    <trip id="21h371" depart="75774.00" from="L4K4" to="K1L1"/>
    <trip id="21h372" depart="75775.00" from="L10K10" to="B4A4"/>
    <trip id="21h373" depart="75776.00" from="H10G10" to="B4A4"/>
    <trip id="21h374" depart="75776.00" from="K2K3" to="K10K11"/>
    <trip id="21h375" depart="75777.00" from="H11H10" to="B4A4"/>
    <trip id="21h376" depart="75777.00" from="B11B10" to="K1L1"/>
    <trip id="21h377" depart="75778.00" from="A6B6" to="K1L1"/>
    <trip id="21h378" depart="75778.00" from="L10K10" to="E10E11"/>
    <trip id="21h379" depart="75778.00" from="L4K4" to="B2A2"/>
    <trip id="21h380" depart="75778.00" from="I8I9" to="B1B0"/>
    <trip id="21h381" depart="75779.00" from="E0E1" to="B5A5"/>
    <trip id="21h382" depart="75779.00" from="F10F9" to="B1B0"/>
    <trip id="21h383" depart="75780.00" from="K0K1" to="K1L1"/>
    <trip id="21h384" depart="75780.00" from="A1B1" to="E10E11"/>
    <trip id="21h385" depart="75780.00" from="B8C8" to="K6L6"/>
    <trip id="21h386" depart="75780.00" from="K1K2" to="K10K11"/>
    <trip id="21h387" depart="75780.00" from="gneE2" to="B1B0"/>
    <trip id="21h388" depart="75781.00" from="I8I9" to="E10E11"/>
    <trip id="21h389" depart="75781.00" from="E0E1" to="K10K11"/>
    <trip id="21h390" depart="75781.00" from="A7B7" to="K10K11"/>
    <trip id="21h391" depart="75782.00" from="B11B10" to="B10A10"/>
    <trip id="21h392" depart="75783.00" from="L4K4" to="K7L7"/>
    <trip id="21h393" depart="75783.00" from="G2F2" to="H1H0"/>
    <trip id="21h394" depart="75784.00" from="L10K10" to="H1H0"/>
    <trip id="21h395" depart="75784.00" from="A1B1" to="B4A4"/>
    <trip id="21h396" depart="75784.00" from="A1B1" to="K1L1"/>
    <trip id="21h397" depart="75785.00" from="H11H10" to="H1I1"/>
    <trip id="21h398" depart="75785.00" from="L10K10" to="H1H0"/>
    <trip id="21h399" depart="75786.00" from="K0K1" to="K10K11"/>
    <trip id="21h400" depart="75786.00" from="A1B1" to="E10E11"/>
    <trip id="21h401" depart="75787.00" from="K0K1" to="K10K11"/>
    <trip id="21h402" depart="75787.00" from="L4K4" to="H1H0"/>
    <trip id="21h403" depart="75787.00" from="A7B7" to="K1L1"/>
    <trip id="21h404" depart="75787.00" from="L10K10" to="B4A4"/>
    <trip id="21h405" depart="75788.00" from="K0K1" to="H1H0"/>
    <trip id="21h406" depart="75788.00" from="E10D10" to="E10E11"/>
    <trip id="21h407" depart="75788.00" from="H11H10" to="K10K11"/>
    <trip id="21h408" depart="75788.00" from="L10K10" to="B4A4"/>
    <trip id="21h409" depart="75789.00" from="L4K4" to="K1L1"/>
    <trip id="21h410" depart="75790.00" from="E0E1" to="G3H3"/>
    <trip id="21h411" depart="75790.00" from="L10K10" to="K8K9"/>
    <trip id="21h412" depart="75790.00" from="E6D6" to="B4A4"/>
    <trip id="21h413" depart="75790.00" from="B10B9" to="H1H0"/>
    <trip id="21h414" depart="75791.00" from="L4K4" to="K10K11"/>
    <trip id="21h415" depart="75791.00" from="E0E1" to="B4A4"/>
    <trip id="21h416" depart="75792.00" from="J1K1" to="K1L1"/>
    <trip id="21h417" depart="75792.00" from="H11H10" to="B4A4"/>
    <trip id="21h418" depart="75792.00" from="gneE6" to="K10K11"/>
    <trip id="21h419" depart="75792.00" from="L4K4" to="K7L7"/>
    <trip id="21h420" depart="75793.00" from="A1B1" to="B1B0"/>
    <trip id="21h421" depart="75793.00" from="H11H10" to="E10E11"/>
    <trip id="21h422" depart="75794.00" from="B11B10" to="K1L1"/>
    <trip id="21h423" depart="75794.00" from="A7B7" to="E6E7"/>
    <trip id="21h424" depart="75795.00" from="B6B5" to="B4A4"/>
    <trip id="21h425" depart="75795.00" from="A7B7" to="K10K11"/>
    <trip id="21h426" depart="75795.00" from="L10K10" to="C5D5"/>
    <trip id="21h427" depart="75795.00" from="B11B10" to="D9D8"/>
    <trip id="21h428" depart="75796.00" from="E0E1" to="E10E11"/>
    <trip id="21h429" depart="75796.00" from="A1B1" to="K1L1"/>
    <trip id="21h430" depart="75796.00" from="L10K10" to="E10E11"/>
    <trip id="21h431" depart="75797.00" from="A1B1" to="K7L7"/>
    <trip id="21h432" depart="75797.00" from="L4K4" to="K1L1"/>
    <trip id="21h433" depart="75797.00" from="E3F3" to="B1B0"/>
    <trip id="21h434" depart="75798.00" from="K0K1" to="B1B0"/>
    <trip id="21h435" depart="75798.00" from="A7B7" to="B4A4"/>
    <trip id="21h436" depart="75798.00" from="H3H2" to="B4A4"/>
    <trip id="21h437" depart="75798.00" from="B11B10" to="B1B0"/>
    <trip id="21h438" depart="75799.00" from="L10K10" to="H1H0"/>
    <trip id="21h439" depart="75800.00" from="C10C9" to="B4A4"/>
    <trip id="21h440" depart="75800.00" from="gneE11" to="H1H0"/>
    <trip id="21h441" depart="75800.00" from="J1K1" to="B4A4"/>
    <trip id="21h442" depart="75801.00" from="gneE6" to="B4A4"/>
    <trip id="21h443" depart="75801.00" from="H11H10" to="K1L1"/>
    <trip id="21h444" depart="75802.00" from="K0K1" to="K7L7"/>
    <trip id="21h445" depart="75802.00" from="L8K8" to="K6L6"/>
    <trip id="21h446" depart="75802.00" from="B11B10" to="B4A4"/>
    <trip id="21h447" depart="75803.00" from="L4K4" to="B1C1"/>
    <trip id="21h448" depart="75803.00" from="K0K1" to="K7L7"/>
    <trip id="21h449" depart="75803.00" from="H11H10" to="K7L7"/>
    <trip id="21h450" depart="75804.00" from="B2B1" to="B1B0"/>
    <trip id="21h451" depart="75804.00" from="L4K4" to="K1L1"/>
    <trip id="21h452" depart="75804.00" from="L4K4" to="K10K11"/>