<?xml version="1.0" encoding="UTF-8"?>
<!-- generated on 2020-12-09 03:20:41.007798 by randomTrips.py v1_7_0+0000-714814baed
  options: -n .\data/grid01-bcn_50.net.xml <doubleminus>prefix=2h <doubleminus>fringe-factor 100 -b 7200 -e 10800 -p4.7368421052631575 <doubleminus>binomial 10 -odata/random/random_h_2-bcn_50.trips.rou.xml <doubleminus>edge-permission=passenger
-->
<routes xmlns:xsi="http://www.w3.org/2001/XMLSchema-instance" xsi:noNamespaceSchemaLocation="http://sumo.dlr.de/xsd/routes_file.xsd">
    <trip id="2h0" depart="7201.00" from="L10K10" to="K10K11"/>
    <trip id="2h1" depart="7209.00" from="K0K1" to="K10K11"/>
    <trip id="2h2" depart="7212.00" from="C4B4" to="B10A10"/>
    <trip id="2h3" depart="7226.00" from="L10K10" to="B4A4"/>
    <trip id="2h4" depart="7228.00" from="K0K1" to="I2I1"/>
    <trip id="2h5" depart="7228.00" from="A1B1" to="K7L7"/>
    <trip id="2h6" depart="7235.00" from="L4K4" to="H1H0"/>
    <trip id="2h7" depart="7238.00" from="B11B10" to="E10E11"/>
    <trip id="2h8" depart="7241.00" from="K0K1" to="K10K11"/>
    <trip id="2h9" depart="7246.00" from="D7E7" to="K10K11"/>
    <trip id="2h10" depart="7249.00" from="H11H10" to="gneE9"/>
    <trip id="2h11" depart="7250.00" from="A7B7" to="B1B0"/>
    <trip id="2h12" depart="7257.00" from="L4K4" to="B10A10"/>
    <trip id="2h13" depart="7261.00" from="H11H10" to="B4A4"/>
    <trip id="2h14" depart="7265.00" from="E0E1" to="H1H0"/>
    <trip id="2h15" depart="7285.00" from="L10K10" to="K7L7"/>
    <trip id="2h16" depart="7292.00" from="H11H10" to="E10E11"/>
    <trip id="2h17" depart="7299.00" from="L10K10" to="B1B0"/>
    <trip id="2h18" depart="7299.00" from="L10K10" to="B4A4"/>
    <trip id="2h19" depart="7309.00" from="L10K10" to="H1H0"/>
    <trip id="2h20" depart="7312.00" from="B2B1" to="B4A4"/>
    <trip id="2h21" depart="7313.00" from="K0K1" to="B1B0"/>
    <trip id="2h22" depart="7314.00" from="L4K4" to="K1L1"/>
    <trip id="2h23" depart="7314.00" from="C4B4" to="K1L1"/>
    <trip id="2h24" depart="7334.00" from="A1B1" to="B4A4"/>
    <trip id="2h25" depart="7335.00" from="H10G10" to="B4A4"/>
    <trip id="2h26" depart="7337.00" from="L10K10" to="D4C4"/>
    <trip id="2h27" depart="7368.00" from="B8C8" to="B1B0"/>
    <trip id="2h28" depart="7375.00" from="H11H10" to="K7L7"/>
    <trip id="2h29" depart="7377.00" from="H11H10" to="B1B0"/>
    <trip id="2h30" depart="7381.00" from="J11J10" to="K10K11"/>
    <trip id="2h31" depart="7389.00" from="A1B1" to="B4A4"/>
    <trip id="2h32" depart="7391.00" from="B11B10" to="B10A10"/>
    <trip id="2h33" depart="7398.00" from="L4K4" to="K7L7"/>
    <trip id="2h34" depart="7404.00" from="G5G6" to="E10E11"/>
    <trip id="2h35" depart="7405.00" from="H11H10" to="B10A10"/>
    <trip id="2h36" depart="7405.00" from="L10K10" to="K10J10"/>
    <trip id="2h37" depart="7407.00" from="A7B7" to="G2F2"/>
    <trip id="2h38" depart="7414.00" from="B6B5" to="E10E11"/>
    <trip id="2h39" depart="7425.00" from="B11B10" to="G7H7"/>
    <trip id="2h40" depart="7434.00" from="A7B7" to="K1L1"/>
    <trip id="2h41" depart="7443.00" from="K2K3" to="K10K11"/>
    <trip id="2h42" depart="7445.00" from="L4K4" to="B2A2"/>
    <trip id="2h43" depart="7447.00" from="F10F9" to="B1B0"/>
    <trip id="2h44" depart="7448.00" from="K0K1" to="K1L1"/>
    <trip id="2h45" depart="7449.00" from="I8I9" to="E10E11"/>
    <trip id="2h46" depart="7454.00" from="A1B1" to="B4A4"/>
    <trip id="2h47" depart="7464.00" from="B10B9" to="H1H0"/>
    <trip id="2h48" depart="7465.00" from="E0E1" to="B4A4"/>
    <trip id="2h49" depart="7465.00" from="J1K1" to="K1L1"/>
    <trip id="2h50" depart="7472.00" from="L10K10" to="K9J9"/>
    <trip id="2h51" depart="7482.00" from="L4K4" to="B1C1"/>
    <trip id="2h52" depart="7488.00" from="E0E1" to="K10K11"/>
    <trip id="2h53" depart="7503.00" from="L10K10" to="B4A4"/>
    <trip id="2h54" depart="7509.00" from="K5K6" to="K10K11"/>
    <trip id="2h55" depart="7509.00" from="L4K4" to="I6I7"/>
    <trip id="2h56" depart="7509.00" from="B11B10" to="K1L1"/>
    <trip id="2h57" depart="7519.00" from="B11B10" to="K10K11"/>
    <trip id="2h58" depart="7521.00" from="C3B3" to="K1L1"/>
    <trip id="2h59" depart="7525.00" from="K0K1" to="E10E11"/>
    <trip id="2h60" depart="7528.00" from="J9J10" to="K7L7"/>
    <trip id="2h61" depart="7539.00" from="A1B1" to="H1H0"/>
    <trip id="2h62" depart="7553.00" from="B11B10" to="H4G4"/>
    <trip id="2h63" depart="7558.00" from="J7K7" to="E10E11"/>
    <trip id="2h64" depart="7561.00" from="A1B1" to="J8K8"/>
    <trip id="2h65" depart="7563.00" from="K0K1" to="H1H0"/>
    <trip id="2h66" depart="7566.00" from="H11H10" to="H1H0"/>
    <trip id="2h67" depart="7571.00" from="B11B10" to="B4A4"/>
    <trip id="2h68" depart="7573.00" from="G6H6" to="B10A10"/>
    <trip id="2h69" depart="7582.00" from="K0K1" to="J4I4"/>
    <trip id="2h70" depart="7589.00" from="J1J0" to="K10K11"/>
    <trip id="2h71" depart="7592.00" from="A1B1" to="B1B0"/>
    <trip id="2h72" depart="7595.00" from="A7B7" to="gneE6"/>
    <trip id="2h73" depart="7600.00" from="L10K10" to="B4A4"/>
    <trip id="2h74" depart="7606.00" from="B11B10" to="H1H0"/>
    <trip id="2h75" depart="7611.00" from="A7B7" to="K1L1"/>
    <trip id="2h76" depart="7619.00" from="L10K10" to="K1L1"/>
    <trip id="2h77" depart="7620.00" from="L4K4" to="K7L7"/>
    <trip id="2h78" depart="7620.00" from="E0E1" to="B4A4"/>
    <trip id="2h79" depart="7620.00" from="E0E1" to="E10E11"/>
    <trip id="2h80" depart="7623.00" from="A1B1" to="H1H0"/>
    <trip id="2h81" depart="7628.00" from="A1B1" to="K1L1"/>
    <trip id="2h82" depart="7633.00" from="I2I3" to="E10E11"/>
    <trip id="2h83" depart="7633.00" from="L10K10" to="K1L1"/>
    <trip id="2h84" depart="7647.00" from="K3L3" to="E10E11"/>
    <trip id="2h85" depart="7653.00" from="K0K1" to="B1B0"/>
    <trip id="2h86" depart="7654.00" from="H11H10" to="J5K5"/>
    <trip id="2h87" depart="7655.00" from="E0E1" to="B4A4"/>
    <trip id="2h88" depart="7656.00" from="L10K10" to="I8I7"/>
    <trip id="2h89" depart="7666.00" from="B11B10" to="E10E11"/>
    <trip id="2h90" depart="7675.00" from="L10K10" to="B4A4"/>
    <trip id="2h91" depart="7682.00" from="A1B1" to="H6H5"/>
    <trip id="2h92" depart="7683.00" from="B11B10" to="B4A4"/>
    <trip id="2h93" depart="7684.00" from="K0K1" to="D2C2"/>
    <trip id="2h94" depart="7691.00" from="L4K4" to="K10K11"/>
    <trip id="2h95" depart="7693.00" from="H5G5" to="G9H9"/>
    <trip id="2h96" depart="7703.00" from="A7B7" to="B1B0"/>
    <trip id="2h97" depart="7705.00" from="L5K5" to="E10E11"/>
    <trip id="2h98" depart="7708.00" from="K0K1" to="F5G5"/>
    <trip id="2h99" depart="7715.00" from="A7B7" to="B1B0"/>
    <trip id="2h100" depart="7719.00" from="L4K4" to="E10E11"/>
    <trip id="2h101" depart="7722.00" from="A1B1" to="B1B0"/>
    <trip id="2h102" depart="7729.00" from="L4K4" to="K1L1"/>
    <trip id="2h103" depart="7739.00" from="F5G5" to="B10A10"/>
    <trip id="2h104" depart="7741.00" from="B11B10" to="B1B0"/>
    <trip id="2h105" depart="7750.00" from="L4K4" to="B10A10"/>
    <trip id="2h106" depart="7751.00" from="K0K1" to="K7L7"/>
    <trip id="2h107" depart="7766.00" from="K0K1" to="K7L7"/>
    <trip id="2h108" depart="7775.00" from="B11B10" to="K7L7"/>
    <trip id="2h109" depart="7780.00" from="H11H10" to="E10E11"/>
    <trip id="2h110" depart="7787.00" from="B11B10" to="B1B0"/>
    <trip id="2h111" depart="7802.00" from="C4C5" to="E3F3"/>
    <trip id="2h112" depart="7808.00" from="K0K1" to="K1L1"/>
    <trip id="2h113" depart="7812.00" from="L10K10" to="B10A10"/>
    <trip id="2h114" depart="7817.00" from="L4K4" to="H1H0"/>
    <trip id="2h115" depart="7829.00" from="A7B7" to="C3D3"/>
    <trip id="2h116" depart="7840.00" from="L4K4" to="J1J2"/>
    <trip id="2h117" depart="7850.00" from="A7B7" to="B1B0"/>
    <trip id="2h118" depart="7851.00" from="A7B7" to="B10A10"/>
    <trip id="2h119" depart="7854.00" from="H8I8" to="K10K11"/>
    <trip id="2h120" depart="7856.00" from="B11B10" to="B1B0"/>
    <trip id="2h121" depart="7859.00" from="L10K10" to="E10D10"/>
    <trip id="2h122" depart="7867.00" from="L10K10" to="K7L7"/>
    <trip id="2h123" depart="7869.00" from="B11B10" to="H1H0"/>
    <trip id="2h124" depart="7885.00" from="K9K10" to="B4A4"/>
    <trip id="2h125" depart="7892.00" from="E6D6" to="K1L1"/>
    <trip id="2h126" depart="7892.00" from="L4K4" to="F3G3"/>
    <trip id="2h127" depart="7895.00" from="K0K1" to="I6H6"/>
    <trip id="2h128" depart="7895.00" from="F10F9" to="K7L7"/>
    <trip id="2h129" depart="7898.00" from="E4E5" to="K7L7"/>
    <trip id="2h130" depart="7898.00" from="B11B10" to="K7L7"/>
    <trip id="2h131" depart="7904.00" from="A7B7" to="B10A10"/>
    <trip id="2h132" depart="7909.00" from="E0E1" to="K1L1"/>
    <trip id="2h133" depart="7912.00" from="H11H10" to="K10K11"/>
    <trip id="2h134" depart="7915.00" from="B11B10" to="B4A4"/>
    <trip id="2h135" depart="7918.00" from="K0K1" to="E10E11"/>
    <trip id="2h136" depart="7928.00" from="B1C1" to="K1L1"/>
    <trip id="2h137" depart="7931.00" from="L10K10" to="K1L1"/>
    <trip id="2h138" depart="7937.00" from="A7B7" to="B10A10"/>
    <trip id="2h139" depart="7943.00" from="A7B7" to="K7L7"/>
    <trip id="2h140" depart="7944.00" from="A7B7" to="B4A4"/>
    <trip id="2h141" depart="7946.00" from="K10J10" to="K10K11"/>
    <trip id="2h142" depart="7957.00" from="L10K10" to="B10A10"/>
    <trip id="2h143" depart="7960.00" from="E0E1" to="K1L1"/>
    <trip id="2h144" depart="7962.00" from="G2G3" to="K10K11"/>
    <trip id="2h145" depart="7966.00" from="K0K1" to="I5I6"/>
    <trip id="2h146" depart="7969.00" from="A1B1" to="K10K11"/>
    <trip id="2h147" depart="7972.00" from="H11H10" to="L8K8"/>
    <trip id="2h148" depart="7972.00" from="H11H10" to="L5K5"/>
    <trip id="2h149" depart="7976.00" from="E0E1" to="B10A10"/>
    <trip id="2h150" depart="7984.00" from="A1B1" to="H1H0"/>
    <trip id="2h151" depart="7991.00" from="K0K1" to="H1H0"/>
    <trip id="2h152" depart="7997.00" from="H11H10" to="H1H0"/>
    <trip id="2h153" depart="8000.00" from="B2A2" to="K7L7"/>
    <trip id="2h154" depart="8006.00" from="E0E1" to="K7L7"/>
    <trip id="2h155" depart="8008.00" from="G9G10" to="B1B0"/>
    <trip id="2h156" depart="8018.00" from="L4K4" to="B1B0"/>
    <trip id="2h157" depart="8029.00" from="H11H10" to="K1L1"/>
    <trip id="2h158" depart="8038.00" from="D6C6" to="H1H0"/>
    <trip id="2h159" depart="8043.00" from="A7B7" to="B1B0"/>
    <trip id="2h160" depart="8044.00" from="L10K10" to="K10K11"/>
    <trip id="2h161" depart="8045.00" from="L4K4" to="K7L7"/>
    <trip id="2h162" depart="8051.00" from="L4K4" to="B1B0"/>
    <trip id="2h163" depart="8055.00" from="gneE3" to="B10A10"/>
    <trip id="2h164" depart="8060.00" from="L10K10" to="K10K11"/>
    <trip id="2h165" depart="8065.00" from="E0E1" to="B4A4"/>
    <trip id="2h166" depart="8074.00" from="L10K10" to="B4A4"/>
    <trip id="2h167" depart="8081.00" from="K6L6" to="H1H0"/>
    <trip id="2h168" depart="8082.00" from="E0E1" to="K1L1"/>
    <trip id="2h169" depart="8084.00" from="L10K10" to="B10A10"/>
    <trip id="2h170" depart="8089.00" from="E0E1" to="B4A4"/>
    <trip id="2h171" depart="8090.00" from="A7B7" to="E10E11"/>
    <trip id="2h172" depart="8098.00" from="A7B7" to="H1H0"/>
    <trip id="2h173" depart="8106.00" from="C6B6" to="E6D6"/>
    <trip id="2h174" depart="8112.00" from="A7B7" to="C3D3"/>
    <trip id="2h175" depart="8117.00" from="B11B10" to="K1L1"/>
    <trip id="2h176" depart="8126.00" from="F10E10" to="C9B9"/>
    <trip id="2h177" depart="8129.00" from="D8C8" to="K10K11"/>
    <trip id="2h178" depart="8129.00" from="L4K4" to="K1L1"/>
    <trip id="2h179" depart="8134.00" from="A1B1" to="B4A4"/>
    <trip id="2h180" depart="8135.00" from="B11B10" to="D7D6"/>
    <trip id="2h181" depart="8141.00" from="L10K10" to="K3K4"/>
    <trip id="2h182" depart="8144.00" from="F4F5" to="K10K11"/>
    <trip id="2h183" depart="8144.00" from="H11H10" to="B1B0"/>
    <trip id="2h184" depart="8148.00" from="B2C2" to="I5J5"/>
    <trip id="2h185" depart="8168.00" from="K0K1" to="K1L1"/>
    <trip id="2h186" depart="8177.00" from="L10K10" to="K7L7"/>
    <trip id="2h187" depart="8192.00" from="A7B7" to="B4A4"/>
    <trip id="2h188" depart="8201.00" from="L10K10" to="B10A10"/>
    <trip id="2h189" depart="8205.00" from="A7B7" to="E10E11"/>
    <trip id="2h190" depart="8206.00" from="A1B1" to="H1H0"/>
    <trip id="2h191" depart="8213.00" from="K0K1" to="K1L1"/>
    <trip id="2h192" depart="8215.00" from="L4K4" to="B1B0"/>
    <trip id="2h193" depart="8217.00" from="L10K10" to="H1H0"/>
    <trip id="2h194" depart="8219.00" from="G1G0" to="E10E11"/>
    <trip id="2h195" depart="8222.00" from="K0K1" to="K10K11"/>
    <trip id="2h196" depart="8228.00" from="E0E1" to="B1B0"/>
    <trip id="2h197" depart="8237.00" from="E0E1" to="H1H0"/>
    <trip id="2h198" depart="8237.00" from="B7C7" to="B10A10"/>
    <trip id="2h199" depart="8241.00" from="L10K10" to="K1L1"/>
    <trip id="2h200" depart="8243.00" from="B11B10" to="D7D8"/>
    <trip id="2h201" depart="8251.00" from="E0E1" to="C9D9"/>
    <trip id="2h202" depart="8255.00" from="A7B7" to="K7L7"/>
    <trip id="2h203" depart="8262.00" from="C1D1" to="H1H0"/>
    <trip id="2h204" depart="8266.00" from="C4B4" to="I1J1"/>
    <trip id="2h205" depart="8272.00" from="E0E1" to="B1B0"/>
    <trip id="2h206" depart="8273.00" from="C4B4" to="B10A10"/>
    <trip id="2h207" depart="8274.00" from="D2C2" to="D5D4"/>
    <trip id="2h208" depart="8286.00" from="A1B1" to="K10K11"/>
    <trip id="2h209" depart="8295.00" from="L4K4" to="D2E2"/>
    <trip id="2h210" depart="8302.00" from="K0K1" to="H1H0"/>
    <trip id="2h211" depart="8309.00" from="K0K1" to="B4A4"/>
    <trip id="2h212" depart="8317.00" from="E0E1" to="B10A10"/>
    <trip id="2h213" depart="8320.00" from="L10K10" to="B10A10"/>
    <trip id="2h214" depart="8327.00" from="L10K10" to="E10E11"/>
    <trip id="2h215" depart="8332.00" from="L4K4" to="B10A10"/>
    <trip id="2h216" depart="8343.00" from="K0K1" to="D8E8"/>
    <trip id="2h217" depart="8346.00" from="B11B10" to="H1H0"/>
    <trip id="2h218" depart="8349.00" from="A7B7" to="B8A8"/>
    <trip id="2h219" depart="8366.00" from="B11B10" to="B10A10"/>
    <trip id="2h220" depart="8374.00" from="H11H10" to="K10K11"/>
    <trip id="2h221" depart="8378.00" from="H11H10" to="K8K9"/>
    <trip id="2h222" depart="8378.00" from="E0E1" to="B10A10"/>
    <trip id="2h223" depart="8390.00" from="L4K4" to="B4A4"/>
    <trip id="2h224" depart="8390.00" from="B11B10" to="K1L1"/>
    <trip id="2h225" depart="8404.00" from="L10K10" to="B1B0"/>
    <trip id="2h226" depart="8411.00" from="L10K10" to="B10A10"/>
    <trip id="2h227" depart="8415.00" from="K0K1" to="K1L1"/>
    <trip id="2h228" depart="8417.00" from="L4K4" to="E10E11"/>
    <trip id="2h229" depart="8420.00" from="E0E1" to="K7L7"/>
    <trip id="2h230" depart="8423.00" from="A1B1" to="K1L1"/>
    <trip id="2h231" depart="8425.00" from="L10K10" to="B4A4"/>
    <trip id="2h232" depart="8426.00" from="A7B7" to="B1B0"/>
    <trip id="2h233" depart="8429.00" from="K0K1" to="B10A10"/>
    <trip id="2h234" depart="8433.00" from="L10K10" to="J4I4"/>
    <trip id="2h235" depart="8436.00" from="B5C5" to="B1B0"/>
    <trip id="2h236" depart="8440.00" from="G8F8" to="B10A10"/>
    <trip id="2h237" depart="8444.00" from="B11B10" to="B1B0"/>
    <trip id="2h238" depart="8452.00" from="K0K1" to="F9F8"/>
    <trip id="2h239" depart="8452.00" from="K0K1" to="H1H0"/>
    <trip id="2h240" depart="8458.00" from="A1B1" to="B10A10"/>
    <trip id="2h241" depart="8459.00" from="B11B10" to="A3B3"/>
    <trip id="2h242" depart="8463.00" from="L4K4" to="J1K1"/>
    <trip id="2h243" depart="8472.00" from="L10K10" to="G5G4"/>
    <trip id="2h244" depart="8479.00" from="A7B7" to="K1L1"/>
    <trip id="2h245" depart="8481.00" from="K3K4" to="K1L1"/>
    <trip id="2h246" depart="8483.00" from="H11H10" to="K10K11"/>
    <trip id="2h247" depart="8486.00" from="A1B1" to="K1L1"/>
    <trip id="2h248" depart="8487.00" from="L10K10" to="B1B0"/>
    <trip id="2h249" depart="8500.00" from="A7B7" to="K7L7"/>
    <trip id="2h250" depart="8503.00" from="D1D0" to="H5I5"/>
    <trip id="2h251" depart="8516.00" from="L10K10" to="K10K11"/>
    <trip id="2h252" depart="8517.00" from="G5G4" to="B10A10"/>
    <trip id="2h253" depart="8518.00" from="E3F3" to="K1L1"/>
    <trip id="2h254" depart="8521.00" from="E0E1" to="I2I3"/>
    <trip id="2h255" depart="8522.00" from="B11B10" to="E10E11"/>
    <trip id="2h256" depart="8529.00" from="A1B1" to="K1L1"/>
    <trip id="2h257" depart="8538.00" from="H11H10" to="F9F8"/>
    <trip id="2h258" depart="8538.00" from="A7B7" to="B1B0"/>
    <trip id="2h259" depart="8547.00" from="K6L6" to="K7L7"/>
    <trip id="2h260" depart="8549.00" from="F4E4" to="K1L1"/>
    <trip id="2h261" depart="8557.00" from="A7B7" to="K10K11"/>
    <trip id="2h262" depart="8558.00" from="B11B10" to="K1L1"/>
    <trip id="2h263" depart="8564.00" from="D9D8" to="L8K8"/>
    <trip id="2h264" depart="8573.00" from="B11B10" to="K10K11"/>
    <trip id="2h265" depart="8574.00" from="H11H10" to="B4A4"/>
    <trip id="2h266" depart="8578.00" from="A7B7" to="B4A4"/>
    <trip id="2h267" depart="8586.00" from="L4K4" to="C5C6"/>
    <trip id="2h268" depart="8586.00" from="A7B7" to="B1B0"/>
    <trip id="2h269" depart="8593.00" from="K0K1" to="K7L7"/>
    <trip id="2h270" depart="8605.00" from="A1B1" to="J6I6"/>
    <trip id="2h271" depart="8609.00" from="B11B10" to="B4A4"/>
    <trip id="2h272" depart="8612.00" from="H5I5" to="I1J1"/>
    <trip id="2h273" depart="8613.00" from="H6H5" to="B4A4"/>
    <trip id="2h274" depart="8625.00" from="A7B7" to="K1L1"/>
    <trip id="2h275" depart="8627.00" from="H4G4" to="B4A4"/>
    <trip id="2h276" depart="8632.00" from="A1B1" to="B1B0"/>
    <trip id="2h277" depart="8637.00" from="L10K10" to="G6H6"/>
    <trip id="2h278" depart="8645.00" from="L10K10" to="B4A4"/>
    <trip id="2h279" depart="8645.00" from="D4C4" to="E10E11"/>
    <trip id="2h280" depart="8650.00" from="J7J8" to="G9H9"/>
    <trip id="2h281" depart="8653.00" from="G11G10" to="E10E11"/>
    <trip id="2h282" depart="8667.00" from="H11H10" to="B10A10"/>
    <trip id="2h283" depart="8667.00" from="C9D9" to="gneE0"/>
    <trip id="2h284" depart="8670.00" from="A7B7" to="K7L7"/>
    <trip id="2h285" depart="8676.00" from="I4I5" to="K10K11"/>
    <trip id="2h286" depart="8683.00" from="C2C1" to="F6F5"/>
    <trip id="2h287" depart="8695.00" from="D1E1" to="B10A10"/>
    <trip id="2h288" depart="8697.00" from="E0E1" to="H10G10"/>
    <trip id="2h289" depart="8699.00" from="B4B3" to="B10A10"/>
    <trip id="2h290" depart="8699.00" from="A1B1" to="B4A4"/>
    <trip id="2h291" depart="8716.00" from="E0E1" to="E8E9"/>
    <trip id="2h292" depart="8722.00" from="J6I6" to="K8K9"/>
    <trip id="2h293" depart="8724.00" from="A1B1" to="K7L7"/>
    <trip id="2h294" depart="8736.00" from="A9B9" to="J8K8"/>
    <trip id="2h295" depart="8739.00" from="J1J0" to="H1H0"/>
    <trip id="2h296" depart="8740.00" from="B11B10" to="gneE7"/>
    <trip id="2h297" depart="8744.00" from="K0K1" to="K7L7"/>
    <trip id="2h298" depart="8750.00" from="A7B7" to="K1L1"/>
    <trip id="2h299" depart="8757.00" from="H11H10" to="B10B9"/>
    <trip id="2h300" depart="8774.00" from="L10K10" to="B7C7"/>
    <trip id="2h301" depart="8780.00" from="F10E10" to="H10H9"/>
    <trip id="2h302" depart="8781.00" from="L10K10" to="E10E11"/>
    <trip id="2h303" depart="8790.00" from="L10K10" to="K1L1"/>
    <trip id="2h304" depart="8793.00" from="K0K1" to="K10K11"/>
    <trip id="2h305" depart="8799.00" from="B11B10" to="K7L7"/>
    <trip id="2h306" depart="8799.00" from="K0K1" to="E10E11"/>
    <trip id="2h307" depart="8800.00" from="A1B1" to="B4A4"/>
    <trip id="2h308" depart="8803.00" from="L10K10" to="E10E11"/>
    <trip id="2h309" depart="8804.00" from="K0K1" to="E10E11"/>
    <trip id="2h310" depart="8804.00" from="I6I7" to="K7L7"/>
    <trip id="2h311" depart="8806.00" from="K1K2" to="K10K11"/>
    <trip id="2h312" depart="8810.00" from="L4K4" to="H1H0"/>
    <trip id="2h313" depart="8810.00" from="L4K4" to="K7L7"/>
    <trip id="2h314" depart="8815.00" from="K0K1" to="B10A10"/>
    <trip id="2h315" depart="8817.00" from="A1B1" to="H1H0"/>
    <trip id="2h316" depart="8821.00" from="L4K4" to="B4A4"/>
    <trip id="2h317" depart="8832.00" from="C5D5" to="B4A4"/>
    <trip id="2h318" depart="8834.00" from="A1B1" to="B1B0"/>
    <trip id="2h319" depart="8838.00" from="E0E1" to="K7L7"/>
    <trip id="2h320" depart="8838.00" from="K0K1" to="H1H0"/>
    <trip id="2h321" depart="8838.00" from="D6C6" to="K7L7"/>
    <trip id="2h322" depart="8843.00" from="F8E8" to="E10E11"/>
    <trip id="2h323" depart="8846.00" from="K0K1" to="H1H0"/>
    <trip id="2h324" depart="8851.00" from="E0E1" to="B10A10"/>
    <trip id="2h325" depart="8859.00" from="A7B7" to="H7I7"/>
    <trip id="2h326" depart="8859.00" from="A1B1" to="B4A4"/>
    <trip id="2h327" depart="8868.00" from="I6I7" to="E10E11"/>
    <trip id="2h328" depart="8883.00" from="H11H10" to="K10K11"/>
    <trip id="2h329" depart="8893.00" from="E0E1" to="F0F1"/>
    <trip id="2h330" depart="8903.00" from="J3J2" to="B4A4"/>
    <trip id="2h331" depart="8906.00" from="L4K4" to="B10A10"/>
    <trip id="2h332" depart="8907.00" from="A7B7" to="B4A4"/>
    <trip id="2h333" depart="8907.00" from="H5G5" to="I9J9"/>
    <trip id="2h334" depart="8914.00" from="E0E1" to="H1H0"/>
    <trip id="2h335" depart="8924.00" from="L4K4" to="H1H0"/>
    <trip id="2h336" depart="8931.00" from="B11B10" to="E10E11"/>
    <trip id="2h337" depart="8938.00" from="L10K10" to="B1B0"/>
    <trip id="2h338" depart="8940.00" from="E0E1" to="B1B0"/>
    <trip id="2h339" depart="8951.00" from="H11H10" to="B1B0"/>
    <trip id="2h340" depart="8951.00" from="G3H3" to="H1H0"/>
    <trip id="2h341" depart="8952.00" from="A7B7" to="K1L1"/>
    <trip id="2h342" depart="8961.00" from="K0K1" to="B1B0"/>
    <trip id="2h343" depart="8962.00" from="L10K10" to="B1B0"/>
    <trip id="2h344" depart="8967.00" from="K0K1" to="B1B0"/>
    <trip id="2h345" depart="8968.00" from="A1B1" to="K7L7"/>
    <trip id="2h346" depart="8968.00" from="H9H8" to="C4C5"/>
    <trip id="2h347" depart="8975.00" from="L4K4" to="F3G3"/>
    <trip id="2h348" depart="8976.00" from="L4K4" to="H1H0"/>
    <trip id="2h349" depart="8980.00" from="E0E1" to="B4A4"/>
    <trip id="2h350" depart="8986.00" from="L10K10" to="H1H0"/>
    <trip id="2h351" depart="8989.00" from="L4K4" to="E10E11"/>
    <trip id="2h352" depart="8991.00" from="A7B7" to="E9E10"/>
    <trip id="2h353" depart="8997.00" from="L10K10" to="K7L7"/>
    <trip id="2h354" depart="9006.00" from="L10K10" to="E10E11"/>
    <trip id="2h355" depart="9015.00" from="C5D5" to="H1H0"/>
    <trip id="2h356" depart="9021.00" from="K0K1" to="B1B0"/>
    <trip id="2h357" depart="9022.00" from="L4K4" to="H1H0"/>
    <trip id="2h358" depart="9029.00" from="L4K4" to="B4A4"/>
    <trip id="2h359" depart="9031.00" from="A7B7" to="E10E11"/>
    <trip id="2h360" depart="9034.00" from="A7B7" to="G5G6"/>
    <trip id="2h361" depart="9041.00" from="K0K1" to="B10A10"/>
    <trip id="2h362" depart="9047.00" from="E6D6" to="H1H0"/>
    <trip id="2h363" depart="9051.00" from="B11B10" to="B4A4"/>
    <trip id="2h364" depart="9052.00" from="D2E2" to="B4A4"/>
    <trip id="2h365" depart="9062.00" from="A1B1" to="B1B0"/>
    <trip id="2h366" depart="9063.00" from="L4K4" to="A6B6"/>
    <trip id="2h367" depart="9063.00" from="H11H10" to="B4A4"/>
    <trip id="2h368" depart="9064.00" from="H10H9" to="H1H0"/>
    <trip id="2h369" depart="9070.00" from="E0E1" to="C4B4"/>
    <trip id="2h370" depart="9074.00" from="B11B10" to="B1B0"/>
    <trip id="2h371" depart="9076.00" from="J6J5" to="K7L7"/>
    <trip id="2h372" depart="9081.00" from="G2F2" to="K10K11"/>
    <trip id="2h373" depart="9089.00" from="J7K7" to="B4A4"/>
    <trip id="2h374" depart="9091.00" from="L10K10" to="K1L1"/>
    <trip id="2h375" depart="9092.00" from="L4K4" to="G1G0"/>
    <trip id="2h376" depart="9097.00" from="A7B7" to="B4A4"/>
    <trip id="2h377" depart="9098.00" from="A7B7" to="E7E8"/>
    <trip id="2h378" depart="9101.00" from="L10K10" to="H1H0"/>
    <trip id="2h379" depart="9101.00" from="I9H9" to="J7K7"/>
    <trip id="2h380" depart="9103.00" from="L10K10" to="K10K11"/>
    <trip id="2h381" depart="9105.00" from="L4K4" to="B4A4"/>
    <trip id="2h382" depart="9107.00" from="L4K4" to="K10K11"/>
    <trip id="2h383" depart="9115.00" from="A7B7" to="E10E11"/>
    <trip id="2h384" depart="9117.00" from="J10I10" to="E10E11"/>
    <trip id="2h385" depart="9122.00" from="A7B7" to="J1J2"/>
    <trip id="2h386" depart="9131.00" from="B11B10" to="H1H0"/>
    <trip id="2h387" depart="9136.00" from="K0K1" to="gneE3"/>
    <trip id="2h388" depart="9136.00" from="K0K1" to="B1B0"/>
    <trip id="2h389" depart="9138.00" from="A7B7" to="E10E11"/>
    <trip id="2h390" depart="9141.00" from="H11H10" to="D5E5"/>
    <trip id="2h391" depart="9155.00" from="G7G6" to="E10E11"/>
    <trip id="2h392" depart="9160.00" from="B11B10" to="B10A10"/>
    <trip id="2h393" depart="9162.00" from="A1B1" to="K7L7"/>
    <trip id="2h394" depart="9163.00" from="H11H10" to="B4A4"/>
    <trip id="2h395" depart="9165.00" from="L4K4" to="H2H1"/>
    <trip id="2h396" depart="9172.00" from="D1D2" to="G2G3"/>
    <trip id="2h397" depart="9173.00" from="L10K10" to="H1H0"/>
    <trip id="2h398" depart="9177.00" from="H11H10" to="C9B9"/>
    <trip id="2h399" depart="9185.00" from="A7B7" to="K1L1"/>
    <trip id="2h400" depart="9189.00" from="B11B10" to="K1L1"/>
    <trip id="2h401" depart="9190.00" from="B11B10" to="H1H0"/>
    <trip id="2h402" depart="9192.00" from="I10I11" to="K7L7"/>
    <trip id="2h403" depart="9194.00" from="L4K4" to="K1L1"/>
    <trip id="2h404" depart="9196.00" from="A7B7" to="G6H6"/>
    <trip id="2h405" depart="9198.00" from="A1B1" to="B1B0"/>
    <trip id="2h406" depart="9198.00" from="H5I5" to="E1E2"/>
    <trip id="2h407" depart="9200.00" from="A7B7" to="K10K11"/>
    <trip id="2h408" depart="9201.00" from="A1B1" to="K7L7"/>
    <trip id="2h409" depart="9202.00" from="L4K4" to="B4A4"/>
    <trip id="2h410" depart="9208.00" from="E0E1" to="B10A10"/>
    <trip id="2h411" depart="9220.00" from="B11B10" to="K7L7"/>
    <trip id="2h412" depart="9221.00" from="G1G0" to="G11G10"/>
    <trip id="2h413" depart="9224.00" from="B11B10" to="E10E11"/>
    <trip id="2h414" depart="9227.00" from="D5D4" to="K10K11"/>
    <trip id="2h415" depart="9228.00" from="B11B10" to="K1L1"/>
    <trip id="2h416" depart="9229.00" from="B8A8" to="K7L7"/>
    <trip id="2h417" depart="9229.00" from="K0K1" to="H1H0"/>
    <trip id="2h418" depart="9231.00" from="E0E1" to="H1H0"/>
    <trip id="2h419" depart="9237.00" from="F1G1" to="B4A4"/>
    <trip id="2h420" depart="9242.00" from="A1B1" to="K10K11"/>
    <trip id="2h421" depart="9242.00" from="H11H10" to="B1B0"/>
    <trip id="2h422" depart="9247.00" from="H11H10" to="K10K11"/>
    <trip id="2h423" depart="9249.00" from="L4K4" to="E10E11"/>
    <trip id="2h424" depart="9250.00" from="A7B7" to="K1L1"/>
    <trip id="2h425" depart="9250.00" from="E0E1" to="K10K11"/>
    <trip id="2h426" depart="9255.00" from="K0K1" to="B10A10"/>
    <trip id="2h427" depart="9256.00" from="I4I3" to="H1H0"/>
    <trip id="2h428" depart="9262.00" from="J9J8" to="C7D7"/>
    <trip id="2h429" depart="9263.00" from="L10K10" to="K1L1"/>
    <trip id="2h430" depart="9265.00" from="H11H10" to="B10A10"/>
    <trip id="2h431" depart="9274.00" from="K0K1" to="B1B0"/>
    <trip id="2h432" depart="9280.00" from="H4G4" to="K7L7"/>
    <trip id="2h433" depart="9282.00" from="A1B1" to="H1H0"/>
    <trip id="2h434" depart="9285.00" from="K3J3" to="K1L1"/>
    <trip id="2h435" depart="9288.00" from="K0K1" to="I2I3"/>
    <trip id="2h436" depart="9289.00" from="C10C11" to="B10A10"/>
    <trip id="2h437" depart="9290.00" from="D11D10" to="K1L1"/>
    <trip id="2h438" depart="9292.00" from="A7B7" to="B8B7"/>
    <trip id="2h439" depart="9294.00" from="H11H10" to="K10K11"/>
    <trip id="2h440" depart="9329.00" from="gneE7" to="K10K11"/>
    <trip id="2h441" depart="9338.00" from="E7F7" to="B4A4"/>
    <trip id="2h442" depart="9340.00" from="A1B1" to="C3B3"/>
    <trip id="2h443" depart="9342.00" from="L10K10" to="B10A10"/>
    <trip id="2h444" depart="9343.00" from="L10K10" to="K1L1"/>
    <trip id="2h445" depart="9344.00" from="A1B1" to="B1B0"/>
    <trip id="2h446" depart="9345.00" from="C4C5" to="K1L1"/>
    <trip id="2h447" depart="9346.00" from="L4K4" to="E10E11"/>
    <trip id="2h448" depart="9350.00" from="B11B10" to="G8G9"/>
    <trip id="2h449" depart="9362.00" from="A1B1" to="H1H0"/>
    <trip id="2h450" depart="9365.00" from="E0E1" to="H1H0"/>
    <trip id="2h451" depart="9371.00" from="B11B10" to="J11J10"/>
    <trip id="2h452" depart="9376.00" from="A7B7" to="K7L7"/>
    <trip id="2h453" depart="9376.00" from="L4K4" to="H1H0"/>
    <trip id="2h454" depart="9386.00" from="L10K10" to="G7G8"/>
    <trip id="2h455" depart="9387.00" from="I2I3" to="K1L1"/>
    <trip id="2h456" depart="9392.00" from="L4K4" to="B4A4"/>
    <trip id="2h457" depart="9398.00" from="L10K10" to="H1H0"/>
    <trip id="2h458" depart="9400.00" from="A1B1" to="B10A10"/>
    <trip id="2h459" depart="9402.00" from="B11B10" to="F2E2"/>
    <trip id="2h460" depart="9403.00" from="B11B10" to="B1B0"/>
    <trip id="2h461" depart="9404.00" from="A1B1" to="B10A10"/>
    <trip id="2h462" depart="9407.00" from="L10K10" to="H1H0"/>
    <trip id="2h463" depart="9410.00" from="B11B10" to="B1B0"/>
    <trip id="2h464" depart="9411.00" from="A7B7" to="E10E11"/>
    <trip id="2h465" depart="9412.00" from="I6H6" to="B1B0"/>
    <trip id="2h466" depart="9428.00" from="E0E1" to="B1B0"/>
    <trip id="2h467" depart="9432.00" from="L4K4" to="K7L7"/>