<?xml version="1.0" encoding="UTF-8"?>
<!-- generated on 2020-12-09 03:20:46.028928 by randomTrips.py v1_7_0+0000-714814baed
  options: -n .\data/grid01-bcn_50.net.xml <doubleminus>prefix=7h <doubleminus>fringe-factor 100 -b 25200 -e 28800 -p0.21123041718007393 <doubleminus>binomial 10 -odata/random/random_h_7-bcn_50.trips.rou.xml <doubleminus>edge-permission=passenger
-->
<routes xmlns:xsi="http://www.w3.org/2001/XMLSchema-instance" xsi:noNamespaceSchemaLocation="http://sumo.dlr.de/xsd/routes_file.xsd">
    <trip id="7h0" depart="25200.00" from="B11B10" to="B4A4"/>
    <trip id="7h1" depart="25200.00" from="E0E1" to="B10A10"/>
    <trip id="7h2" depart="25200.00" from="G5G6" to="B10A10"/>
    <trip id="7h3" depart="25200.00" from="I8I9" to="H1H0"/>
    <trip id="7h4" depart="25200.00" from="H11H10" to="K1L1"/>
    <trip id="7h5" depart="25200.00" from="L10K10" to="K10K11"/>
    <trip id="7h6" depart="25201.00" from="A7B7" to="K7L7"/>
    <trip id="7h7" depart="25201.00" from="A1B1" to="B10A10"/>
    <trip id="7h8" depart="25201.00" from="H11H10" to="K1L1"/>
    <trip id="7h9" depart="25202.00" from="B11B10" to="B4A4"/>
    <trip id="7h10" depart="25202.00" from="B11B10" to="B10A10"/>
    <trip id="7h11" depart="25202.00" from="I10I9" to="E10E11"/>
    <trip id="7h12" depart="25202.00" from="B11B10" to="B4A4"/>
    <trip id="7h13" depart="25203.00" from="K0K1" to="B1B0"/>
    <trip id="7h14" depart="25203.00" from="gneE1" to="I3J3"/>
    <trip id="7h15" depart="25203.00" from="A1B1" to="C0C1"/>
    <trip id="7h16" depart="25203.00" from="B11B10" to="K7L7"/>
    <trip id="7h17" depart="25203.00" from="J1J0" to="E10E11"/>
    <trip id="7h18" depart="25204.00" from="B11B10" to="B4A4"/>
    <trip id="7h19" depart="25204.00" from="H11H10" to="K7L7"/>
    <trip id="7h20" depart="25204.00" from="B11B10" to="gneE7"/>
    <trip id="7h21" depart="25204.00" from="A1B1" to="B1B0"/>
    <trip id="7h22" depart="25204.00" from="A1B1" to="E10E11"/>
    <trip id="7h23" depart="25205.00" from="K0K1" to="K10K11"/>
    <trip id="7h24" depart="25205.00" from="I4H4" to="B1B0"/>
    <trip id="7h25" depart="25205.00" from="E0E1" to="K7L7"/>
    <trip id="7h26" depart="25205.00" from="G2G3" to="B1B0"/>
    <trip id="7h27" depart="25206.00" from="I3H3" to="H1H0"/>
    <trip id="7h28" depart="25206.00" from="K0K1" to="H1H0"/>
    <trip id="7h29" depart="25206.00" from="C4B4" to="B10A10"/>
    <trip id="7h30" depart="25207.00" from="A1B1" to="K5K6"/>
    <trip id="7h31" depart="25207.00" from="F5E5" to="B10A10"/>
    <trip id="7h32" depart="25207.00" from="F10E10" to="H1H0"/>
    <trip id="7h33" depart="25207.00" from="L10K10" to="E10E11"/>
    <trip id="7h34" depart="25207.00" from="H11H10" to="K10K11"/>
    <trip id="7h35" depart="25207.00" from="B8A8" to="gneE5"/>
    <trip id="7h36" depart="25208.00" from="H11H10" to="B1B0"/>
    <trip id="7h37" depart="25208.00" from="D1D0" to="H1H0"/>
    <trip id="7h38" depart="25208.00" from="B11B10" to="B10A10"/>
    <trip id="7h39" depart="25208.00" from="L4K4" to="K1L1"/>
    <trip id="7h40" depart="25208.00" from="B11B10" to="J7K7"/>
    <trip id="7h41" depart="25208.00" from="A7B7" to="K7L7"/>
    <trip id="7h42" depart="25208.00" from="K8K9" to="K1L1"/>
    <trip id="7h43" depart="25208.00" from="A1B1" to="E10E11"/>
    <trip id="7h44" depart="25209.00" from="E6F6" to="K10K11"/>
    <trip id="7h45" depart="25209.00" from="E0E1" to="D1D2"/>
    <trip id="7h46" depart="25209.00" from="A7B7" to="E10E11"/>
    <trip id="7h47" depart="25209.00" from="B11B10" to="B4A4"/>
    <trip id="7h48" depart="25209.00" from="L10K10" to="H1H0"/>
    <trip id="7h49" depart="25209.00" from="gneE9" to="K1L1"/>
    <trip id="7h50" depart="25210.00" from="F5E5" to="B4A4"/>
    <trip id="7h51" depart="25210.00" from="A1B1" to="E10E11"/>
    <trip id="7h52" depart="25210.00" from="K7K8" to="E10E11"/>
    <trip id="7h53" depart="25210.00" from="L4K4" to="gneE5"/>
    <trip id="7h54" depart="25211.00" from="B11B10" to="K7L7"/>
    <trip id="7h55" depart="25211.00" from="H11H10" to="G3H3"/>
    <trip id="7h56" depart="25211.00" from="L4K4" to="B10A10"/>
    <trip id="7h57" depart="25211.00" from="H11H10" to="K10K11"/>
    <trip id="7h58" depart="25211.00" from="A7B7" to="K7L7"/>
    <trip id="7h59" depart="25211.00" from="H11H10" to="H3H2"/>
    <trip id="7h60" depart="25212.00" from="H11H10" to="H1H0"/>
    <trip id="7h61" depart="25212.00" from="K0K1" to="B4A4"/>
    <trip id="7h62" depart="25212.00" from="J9J10" to="B4A4"/>
    <trip id="7h63" depart="25212.00" from="K0K1" to="B10A10"/>
    <trip id="7h64" depart="25212.00" from="gneE8" to="gneE6"/>
    <trip id="7h65" depart="25212.00" from="B11B10" to="B4A4"/>
    <trip id="7h66" depart="25213.00" from="A7B7" to="K1L1"/>
    <trip id="7h67" depart="25213.00" from="L10K10" to="B4A4"/>
    <trip id="7h68" depart="25213.00" from="A7B7" to="B1B0"/>
    <trip id="7h69" depart="25214.00" from="H11H10" to="K10K11"/>
    <trip id="7h70" depart="25214.00" from="I10I11" to="B4A4"/>
    <trip id="7h71" depart="25214.00" from="E0E1" to="B4A4"/>
    <trip id="7h72" depart="25214.00" from="K0K1" to="I2I1"/>
    <trip id="7h73" depart="25214.00" from="K0K1" to="H1H0"/>
    <trip id="7h74" depart="25214.00" from="A1B1" to="B10A10"/>
    <trip id="7h75" depart="25215.00" from="A7B7" to="B6B5"/>
    <trip id="7h76" depart="25215.00" from="B11B10" to="B1B0"/>
    <trip id="7h77" depart="25216.00" from="H4G4" to="B1B0"/>
    <trip id="7h78" depart="25216.00" from="K0K1" to="C8C7"/>
    <trip id="7h79" depart="25217.00" from="K9K10" to="B1B0"/>
    <trip id="7h80" depart="25217.00" from="L10K10" to="E3E4"/>
    <trip id="7h81" depart="25217.00" from="L10K10" to="B4A4"/>
    <trip id="7h82" depart="25217.00" from="A7B7" to="C5D5"/>
    <trip id="7h83" depart="25218.00" from="I4H4" to="E10E11"/>
    <trip id="7h84" depart="25218.00" from="L4K4" to="B1B0"/>
    <trip id="7h85" depart="25218.00" from="A7B7" to="E10E11"/>
    <trip id="7h86" depart="25218.00" from="H11H10" to="G8F8"/>
    <trip id="7h87" depart="25219.00" from="H11H10" to="B4A4"/>
    <trip id="7h88" depart="25219.00" from="L4K4" to="H1H0"/>
    <trip id="7h89" depart="25219.00" from="A1B1" to="J5K5"/>
    <trip id="7h90" depart="25219.00" from="B8C8" to="K1L1"/>
    <trip id="7h91" depart="25219.00" from="B7B6" to="E10E11"/>
    <trip id="7h92" depart="25220.00" from="B11B10" to="B1B0"/>
    <trip id="7h93" depart="25220.00" from="L4K4" to="K10K11"/>
    <trip id="7h94" depart="25220.00" from="H11H10" to="A3B3"/>
    <trip id="7h95" depart="25220.00" from="E0E1" to="H1H0"/>
    <trip id="7h96" depart="25220.00" from="E0E1" to="B4A4"/>
    <trip id="7h97" depart="25220.00" from="L4K4" to="K1L1"/>
    <trip id="7h98" depart="25220.00" from="A1B1" to="H10G10"/>
    <trip id="7h99" depart="25221.00" from="L10K10" to="K10K11"/>
    <trip id="7h100" depart="25221.00" from="A9B9" to="B10A10"/>
    <trip id="7h101" depart="25221.00" from="F10E10" to="K1L1"/>
    <trip id="7h102" depart="25221.00" from="E0E1" to="H8H7"/>
    <trip id="7h103" depart="25221.00" from="K0K1" to="G10F10"/>
    <trip id="7h104" depart="25221.00" from="J1J2" to="B10A10"/>
    <trip id="7h105" depart="25222.00" from="E0E1" to="B1B0"/>
    <trip id="7h106" depart="25222.00" from="B11B10" to="K1L1"/>
    <trip id="7h107" depart="25222.00" from="L10K10" to="J7J8"/>
    <trip id="7h108" depart="25223.00" from="B11B10" to="I2I1"/>
    <trip id="7h109" depart="25224.00" from="A1B1" to="B4A4"/>
    <trip id="7h110" depart="25224.00" from="C1D1" to="H1H0"/>
    <trip id="7h111" depart="25224.00" from="B11B10" to="K10K11"/>
    <trip id="7h112" depart="25224.00" from="E0E1" to="H1H0"/>
    <trip id="7h113" depart="25224.00" from="B11B10" to="E10E11"/>
    <trip id="7h114" depart="25225.00" from="A1B1" to="D7E7"/>
    <trip id="7h115" depart="25225.00" from="K0K1" to="H1H0"/>
    <trip id="7h116" depart="25225.00" from="B11B10" to="E10E11"/>
    <trip id="7h117" depart="25225.00" from="D10C10" to="K10K11"/>
    <trip id="7h118" depart="25226.00" from="A7B7" to="E6F6"/>
    <trip id="7h119" depart="25226.00" from="H5G5" to="B10A10"/>
    <trip id="7h120" depart="25226.00" from="H11H10" to="B10A10"/>
    <trip id="7h121" depart="25226.00" from="E4D4" to="B10A10"/>
    <trip id="7h122" depart="25226.00" from="B11B10" to="C5C6"/>
    <trip id="7h123" depart="25226.00" from="K0K1" to="K1L1"/>
    <trip id="7h124" depart="25226.00" from="A1B1" to="B10A10"/>
    <trip id="7h125" depart="25227.00" from="I8I9" to="K1L1"/>
    <trip id="7h126" depart="25227.00" from="A1B1" to="B1B0"/>
    <trip id="7h127" depart="25227.00" from="J8I8" to="H1H0"/>
    <trip id="7h128" depart="25227.00" from="K0K1" to="K10K11"/>
    <trip id="7h129" depart="25227.00" from="H11H10" to="K10K11"/>
    <trip id="7h130" depart="25227.00" from="L10K10" to="K7L7"/>
    <trip id="7h131" depart="25228.00" from="A1B1" to="B8A8"/>
    <trip id="7h132" depart="25228.00" from="K0K1" to="B10A10"/>
    <trip id="7h133" depart="25228.00" from="K10J10" to="K1L1"/>
    <trip id="7h134" depart="25228.00" from="L4K4" to="K1L1"/>
    <trip id="7h135" depart="25228.00" from="E0E1" to="E10E11"/>
    <trip id="7h136" depart="25229.00" from="L10K10" to="K1L1"/>
    <trip id="7h137" depart="25229.00" from="L4K4" to="I10I9"/>
    <trip id="7h138" depart="25229.00" from="K0K1" to="K7L7"/>
    <trip id="7h139" depart="25229.00" from="L10K10" to="H1H0"/>
    <trip id="7h140" depart="25229.00" from="K0K1" to="B4A4"/>
    <trip id="7h141" depart="25230.00" from="L10K10" to="B4A4"/>
    <trip id="7h142" depart="25230.00" from="H11H10" to="E10E11"/>
    <trip id="7h143" depart="25230.00" from="L10K10" to="B1B0"/>
    <trip id="7h144" depart="25230.00" from="L10K10" to="D1E1"/>
    <trip id="7h145" depart="25230.00" from="A1B1" to="K7L7"/>
    <trip id="7h146" depart="25230.00" from="K0K1" to="F6F7"/>
    <trip id="7h147" depart="25231.00" from="B11B10" to="K10K11"/>
    <trip id="7h148" depart="25231.00" from="H11H10" to="E9F9"/>
    <trip id="7h149" depart="25231.00" from="K0K1" to="C7D7"/>
    <trip id="7h150" depart="25231.00" from="B11B10" to="B1B0"/>
    <trip id="7h151" depart="25232.00" from="A7B7" to="H1H0"/>
    <trip id="7h152" depart="25232.00" from="B11B10" to="F4F3"/>
    <trip id="7h153" depart="25232.00" from="A7B7" to="B1B0"/>
    <trip id="7h154" depart="25232.00" from="A7B7" to="B10A10"/>
    <trip id="7h155" depart="25232.00" from="L4K4" to="H1H0"/>
    <trip id="7h156" depart="25233.00" from="L10K10" to="F8E8"/>
    <trip id="7h157" depart="25233.00" from="E0E1" to="B1B0"/>
    <trip id="7h158" depart="25233.00" from="L4K4" to="F1G1"/>
    <trip id="7h159" depart="25233.00" from="A1B1" to="H8H7"/>
    <trip id="7h160" depart="25233.00" from="A7B7" to="H1H0"/>
    <trip id="7h161" depart="25233.00" from="gneE3" to="B1B0"/>
    <trip id="7h162" depart="25234.00" from="H11H10" to="E10E11"/>
    <trip id="7h163" depart="25234.00" from="L10K10" to="gneE1"/>
    <trip id="7h164" depart="25234.00" from="H4G4" to="H1H0"/>
    <trip id="7h165" depart="25234.00" from="B11B10" to="J3J2"/>
    <trip id="7h166" depart="25234.00" from="A7B7" to="B10A10"/>
    <trip id="7h167" depart="25235.00" from="E0E1" to="H1H0"/>
    <trip id="7h168" depart="25235.00" from="B11B10" to="K10K11"/>
    <trip id="7h169" depart="25235.00" from="K0K1" to="K7L7"/>
    <trip id="7h170" depart="25235.00" from="H11H10" to="I6I7"/>
    <trip id="7h171" depart="25236.00" from="A7B7" to="B5C5"/>
    <trip id="7h172" depart="25236.00" from="A7B7" to="K10K11"/>
    <trip id="7h173" depart="25236.00" from="A1B1" to="E10E11"/>
    <trip id="7h174" depart="25237.00" from="B11B10" to="B10A10"/>
    <trip id="7h175" depart="25237.00" from="A1B1" to="K10K11"/>
    <trip id="7h176" depart="25237.00" from="I9H9" to="K7L7"/>
    <trip id="7h177" depart="25237.00" from="H11H10" to="I10I11"/>
    <trip id="7h178" depart="25238.00" from="D6C6" to="C8C9"/>
    <trip id="7h179" depart="25238.00" from="K0K1" to="B4A4"/>
    <trip id="7h180" depart="25238.00" from="B9B8" to="C3D3"/>
    <trip id="7h181" depart="25239.00" from="G9H9" to="L8K8"/>
    <trip id="7h182" depart="25239.00" from="A7B7" to="E10E11"/>
    <trip id="7h183" depart="25239.00" from="H11H10" to="K7L7"/>
    <trip id="7h184" depart="25239.00" from="K0K1" to="B1B0"/>
    <trip id="7h185" depart="25240.00" from="A7B7" to="H1H0"/>
    <trip id="7h186" depart="25240.00" from="gneE2" to="K7L7"/>
    <trip id="7h187" depart="25240.00" from="A7B7" to="K1L1"/>
    <trip id="7h188" depart="25240.00" from="L10K10" to="K7L7"/>
    <trip id="7h189" depart="25240.00" from="H11H10" to="E10E11"/>
    <trip id="7h190" depart="25241.00" from="L10K10" to="E10E11"/>
    <trip id="7h191" depart="25241.00" from="B11B10" to="H1H0"/>
    <trip id="7h192" depart="25242.00" from="H11H10" to="D4C4"/>
    <trip id="7h193" depart="25242.00" from="C2C3" to="B1B0"/>
    <trip id="7h194" depart="25242.00" from="K3J3" to="B10A10"/>
    <trip id="7h195" depart="25243.00" from="J5K5" to="K1L1"/>
    <trip id="7h196" depart="25243.00" from="G3H3" to="H1H0"/>
    <trip id="7h197" depart="25243.00" from="H11H10" to="E1F1"/>
    <trip id="7h198" depart="25243.00" from="J1J0" to="B1B0"/>
    <trip id="7h199" depart="25244.00" from="L4K4" to="D1D0"/>
    <trip id="7h200" depart="25244.00" from="C10B10" to="K10K11"/>
    <trip id="7h201" depart="25244.00" from="A1B1" to="H9H8"/>
    <trip id="7h202" depart="25245.00" from="A3B3" to="I10H10"/>
    <trip id="7h203" depart="25245.00" from="K0K1" to="K7L7"/>
    <trip id="7h204" depart="25245.00" from="L10K10" to="B4A4"/>
    <trip id="7h205" depart="25245.00" from="A7B7" to="H1H0"/>
    <trip id="7h206" depart="25246.00" from="A1B1" to="K1L1"/>
    <trip id="7h207" depart="25246.00" from="L4K4" to="B1B0"/>
    <trip id="7h208" depart="25246.00" from="B11B10" to="B4A4"/>
    <trip id="7h209" depart="25246.00" from="L10K10" to="K7L7"/>
    <trip id="7h210" depart="25246.00" from="E0E1" to="D5D4"/>
    <trip id="7h211" depart="25246.00" from="B11B10" to="K1L1"/>
    <trip id="7h212" depart="25247.00" from="E0E1" to="F4E4"/>
    <trip id="7h213" depart="25247.00" from="H11H10" to="H1H0"/>
    <trip id="7h214" depart="25247.00" from="L4K4" to="J2I2"/>
    <trip id="7h215" depart="25247.00" from="H11H10" to="K10K11"/>
    <trip id="7h216" depart="25247.00" from="H11H10" to="G1G0"/>
    <trip id="7h217" depart="25247.00" from="L10K10" to="H1H0"/>
    <trip id="7h218" depart="25247.00" from="I1J1" to="H4G4"/>
    <trip id="7h219" depart="25248.00" from="E0E1" to="H1H0"/>
    <trip id="7h220" depart="25248.00" from="B11B10" to="K10K11"/>
    <trip id="7h221" depart="25249.00" from="A7B7" to="H1H0"/>
    <trip id="7h222" depart="25249.00" from="L10K10" to="F3G3"/>
    <trip id="7h223" depart="25249.00" from="A7B7" to="K7L7"/>
    <trip id="7h224" depart="25249.00" from="L4K4" to="K1L1"/>
    <trip id="7h225" depart="25250.00" from="L10K10" to="B10A10"/>
    <trip id="7h226" depart="25250.00" from="J9J8" to="J9J8"/>
    <trip id="7h227" depart="25251.00" from="B11B10" to="B10A10"/>
    <trip id="7h228" depart="25251.00" from="A1B1" to="K1L1"/>
    <trip id="7h229" depart="25251.00" from="E0E1" to="B1B0"/>
    <trip id="7h230" depart="25251.00" from="F9F8" to="B10A10"/>
    <trip id="7h231" depart="25252.00" from="E0E1" to="J8K8"/>
    <trip id="7h232" depart="25252.00" from="K0K1" to="B1B0"/>
    <trip id="7h233" depart="25252.00" from="A3B3" to="F7G7"/>
    <trip id="7h234" depart="25252.00" from="L4K4" to="B10A10"/>
    <trip id="7h235" depart="25252.00" from="E0E1" to="K7L7"/>
    <trip id="7h236" depart="25252.00" from="K0K1" to="H1H0"/>
    <trip id="7h237" depart="25253.00" from="E0E1" to="B1B0"/>
    <trip id="7h238" depart="25253.00" from="L10K10" to="E10E11"/>
    <trip id="7h239" depart="25253.00" from="K9K10" to="B4A4"/>
    <trip id="7h240" depart="25253.00" from="H11H10" to="B10A10"/>
    <trip id="7h241" depart="25253.00" from="B11B10" to="K1L1"/>
    <trip id="7h242" depart="25253.00" from="A7B7" to="K7L7"/>
    <trip id="7h243" depart="25254.00" from="L10K10" to="B1B0"/>
    <trip id="7h244" depart="25254.00" from="B11B10" to="B1B0"/>
    <trip id="7h245" depart="25254.00" from="A1B1" to="K1L1"/>
    <trip id="7h246" depart="25254.00" from="C3D3" to="B1B0"/>
    <trip id="7h247" depart="25254.00" from="K0K1" to="H1H0"/>
    <trip id="7h248" depart="25255.00" from="G4F4" to="K7L7"/>
    <trip id="7h249" depart="25255.00" from="K6L6" to="K1L1"/>
    <trip id="7h250" depart="25255.00" from="L4K4" to="B10A10"/>
    <trip id="7h251" depart="25255.00" from="K0K1" to="F8E8"/>
    <trip id="7h252" depart="25255.00" from="A1B1" to="H1H0"/>
    <trip id="7h253" depart="25255.00" from="B11B10" to="I10H10"/>
    <trip id="7h254" depart="25256.00" from="gneE4" to="H1H0"/>
    <trip id="7h255" depart="25256.00" from="H11H10" to="B10A10"/>
    <trip id="7h256" depart="25256.00" from="E0E1" to="B4A4"/>
    <trip id="7h257" depart="25256.00" from="E0E1" to="E10E11"/>
    <trip id="7h258" depart="25256.00" from="E0E1" to="J6I6"/>
    <trip id="7h259" depart="25257.00" from="A7B7" to="K7L7"/>
    <trip id="7h260" depart="25257.00" from="L10K10" to="B10A10"/>
    <trip id="7h261" depart="25257.00" from="K0K1" to="K1L1"/>
    <trip id="7h262" depart="25257.00" from="A7B7" to="D8E8"/>
    <trip id="7h263" depart="25258.00" from="H11H10" to="B4A4"/>
    <trip id="7h264" depart="25258.00" from="A7B7" to="K1L1"/>
    <trip id="7h265" depart="25258.00" from="K0K1" to="H1H0"/>
    <trip id="7h266" depart="25259.00" from="L4K4" to="K1L1"/>
    <trip id="7h267" depart="25259.00" from="A7B7" to="K10K11"/>
    <trip id="7h268" depart="25259.00" from="D1E1" to="B10A10"/>
    <trip id="7h269" depart="25259.00" from="A7B7" to="I10H10"/>
    <trip id="7h270" depart="25259.00" from="K0K1" to="B4A4"/>
    <trip id="7h271" depart="25260.00" from="D2C2" to="E10E11"/>
    <trip id="7h272" depart="25260.00" from="A1B1" to="B1B0"/>
    <trip id="7h273" depart="25260.00" from="J4I4" to="F5E5"/>
    <trip id="7h274" depart="25260.00" from="B11B10" to="K10K11"/>
    <trip id="7h275" depart="25260.00" from="E0E1" to="B4A4"/>
    <trip id="7h276" depart="25261.00" from="E0E1" to="H1H0"/>
    <trip id="7h277" depart="25261.00" from="B2B1" to="B4A4"/>
    <trip id="7h278" depart="25261.00" from="B11B10" to="C5D5"/>
    <trip id="7h279" depart="25261.00" from="K0K1" to="B1B0"/>
    <trip id="7h280" depart="25261.00" from="K0K1" to="G2G3"/>
    <trip id="7h281" depart="25262.00" from="L10K10" to="B10A10"/>
    <trip id="7h282" depart="25262.00" from="L4K4" to="K1L1"/>
    <trip id="7h283" depart="25262.00" from="A7B7" to="B10A10"/>
    <trip id="7h284" depart="25262.00" from="L10K10" to="H2I2"/>
    <trip id="7h285" depart="25262.00" from="L10K10" to="B4A4"/>
    <trip id="7h286" depart="25263.00" from="B7C7" to="D1D2"/>
    <trip id="7h287" depart="25263.00" from="A7B7" to="G7H7"/>
    <trip id="7h288" depart="25263.00" from="G7H7" to="K7L7"/>
    <trip id="7h289" depart="25263.00" from="K0K1" to="K1L1"/>
    <trip id="7h290" depart="25263.00" from="A7B7" to="B1B0"/>
    <trip id="7h291" depart="25264.00" from="K1K2" to="G10F10"/>
    <trip id="7h292" depart="25264.00" from="L4K4" to="H1H0"/>
    <trip id="7h293" depart="25264.00" from="A1B1" to="E10E11"/>
    <trip id="7h294" depart="25265.00" from="B11B10" to="B10A10"/>
    <trip id="7h295" depart="25265.00" from="E0E1" to="B10A10"/>
    <trip id="7h296" depart="25265.00" from="L10K10" to="K1L1"/>
    <trip id="7h297" depart="25265.00" from="H11H10" to="K1L1"/>
    <trip id="7h298" depart="25265.00" from="L10K10" to="I9J9"/>
    <trip id="7h299" depart="25266.00" from="F10F11" to="B1B0"/>
    <trip id="7h300" depart="25266.00" from="A7B7" to="K7L7"/>
    <trip id="7h301" depart="25266.00" from="K0K1" to="G5G4"/>
    <trip id="7h302" depart="25266.00" from="B11B10" to="E10E11"/>
    <trip id="7h303" depart="25266.00" from="H11H10" to="B1B0"/>
    <trip id="7h304" depart="25266.00" from="B11B10" to="E10E11"/>
    <trip id="7h305" depart="25266.00" from="H11H10" to="K1L1"/>
    <trip id="7h306" depart="25266.00" from="A1B1" to="K10K11"/>
    <trip id="7h307" depart="25266.00" from="K0K1" to="J1K1"/>
    <trip id="7h308" depart="25267.00" from="H11H10" to="B1B0"/>
    <trip id="7h309" depart="25267.00" from="L4K4" to="K10K11"/>
    <trip id="7h310" depart="25267.00" from="H11H10" to="K7L7"/>
    <trip id="7h311" depart="25267.00" from="E0E1" to="K1L1"/>
    <trip id="7h312" depart="25268.00" from="E0E1" to="E10E11"/>
    <trip id="7h313" depart="25268.00" from="B11B10" to="K7L7"/>
    <trip id="7h314" depart="25268.00" from="A7B7" to="B10A10"/>
    <trip id="7h315" depart="25268.00" from="K0K1" to="K1L1"/>
    <trip id="7h316" depart="25269.00" from="D11D10" to="K10K11"/>
    <trip id="7h317" depart="25269.00" from="E0E1" to="B1B0"/>
    <trip id="7h318" depart="25269.00" from="E0E1" to="E10E11"/>
    <trip id="7h319" depart="25269.00" from="E0E1" to="B4A4"/>
    <trip id="7h320" depart="25269.00" from="H11H10" to="B7B6"/>
    <trip id="7h321" depart="25270.00" from="L10K10" to="E10E11"/>
    <trip id="7h322" depart="25270.00" from="B11B10" to="E10E11"/>
    <trip id="7h323" depart="25270.00" from="B11B10" to="I4H4"/>
    <trip id="7h324" depart="25271.00" from="L10K10" to="K1L1"/>
    <trip id="7h325" depart="25271.00" from="K0K1" to="B4A4"/>
    <trip id="7h326" depart="25271.00" from="E0E1" to="K7L7"/>
    <trip id="7h327" depart="25271.00" from="E0E1" to="D7D6"/>
    <trip id="7h328" depart="25271.00" from="A1B1" to="G3H3"/>
    <trip id="7h329" depart="25271.00" from="gneE4" to="E10E11"/>
    <trip id="7h330" depart="25271.00" from="L4K4" to="K1L1"/>
    <trip id="7h331" depart="25272.00" from="B11B10" to="K1L1"/>
    <trip id="7h332" depart="25272.00" from="K0K1" to="E10E11"/>
    <trip id="7h333" depart="25272.00" from="A1B1" to="B4A4"/>
    <trip id="7h334" depart="25273.00" from="B11B10" to="B4A4"/>
    <trip id="7h335" depart="25273.00" from="E0E1" to="K1L1"/>
    <trip id="7h336" depart="25273.00" from="A7B7" to="K7L7"/>
    <trip id="7h337" depart="25273.00" from="H10G10" to="B4A4"/>
    <trip id="7h338" depart="25273.00" from="E0E1" to="H1H0"/>
    <trip id="7h339" depart="25273.00" from="E0E1" to="J6I6"/>
    <trip id="7h340" depart="25273.00" from="L4K4" to="B10A10"/>
    <trip id="7h341" depart="25274.00" from="E8E9" to="I10I9"/>
    <trip id="7h342" depart="25274.00" from="A1B1" to="K1L1"/>
    <trip id="7h343" depart="25274.00" from="K0K1" to="H8G8"/>
    <trip id="7h344" depart="25274.00" from="A1B1" to="H1H0"/>
    <trip id="7h345" depart="25275.00" from="K4K5" to="E6D6"/>
    <trip id="7h346" depart="25275.00" from="K3K4" to="E2E3"/>
    <trip id="7h347" depart="25275.00" from="A1B1" to="B1B0"/>
    <trip id="7h348" depart="25275.00" from="L4K4" to="H10G10"/>
    <trip id="7h349" depart="25275.00" from="K0K1" to="B1B0"/>
    <trip id="7h350" depart="25276.00" from="K6J6" to="K1L1"/>
    <trip id="7h351" depart="25276.00" from="A7B7" to="E10E11"/>
    <trip id="7h352" depart="25276.00" from="L4K4" to="G1G0"/>
    <trip id="7h353" depart="25277.00" from="H11H10" to="K1L1"/>
    <trip id="7h354" depart="25277.00" from="A1B1" to="J3J4"/>
    <trip id="7h355" depart="25277.00" from="H11H10" to="E10E11"/>
    <trip id="7h356" depart="25277.00" from="A1B1" to="K1L1"/>
    <trip id="7h357" depart="25277.00" from="gneE8" to="B4A4"/>
    <trip id="7h358" depart="25278.00" from="I2I1" to="E10E11"/>
    <trip id="7h359" depart="25278.00" from="H11H10" to="K1L1"/>
    <trip id="7h360" depart="25278.00" from="A1B1" to="K1L1"/>
    <trip id="7h361" depart="25278.00" from="E0E1" to="H1H0"/>
    <trip id="7h362" depart="25279.00" from="K0K1" to="H1H0"/>
    <trip id="7h363" depart="25279.00" from="I8I7" to="B4A4"/>
    <trip id="7h364" depart="25279.00" from="K0K1" to="G2F2"/>
    <trip id="7h365" depart="25279.00" from="H11H10" to="B4A4"/>
    <trip id="7h366" depart="25279.00" from="E0E1" to="gneE6"/>
    <trip id="7h367" depart="25279.00" from="L4K4" to="F8F7"/>
    <trip id="7h368" depart="25279.00" from="L10K10" to="E10E11"/>
    <trip id="7h369" depart="25279.00" from="A1B1" to="K10K11"/>
    <trip id="7h370" depart="25280.00" from="D5E5" to="B10A10"/>
    <trip id="7h371" depart="25281.00" from="B11B10" to="B1B0"/>
    <trip id="7h372" depart="25281.00" from="H11H10" to="E10E11"/>
    <trip id="7h373" depart="25281.00" from="B7B6" to="gneE9"/>
    <trip id="7h374" depart="25282.00" from="L4K4" to="I4I3"/>
    <trip id="7h375" depart="25282.00" from="K0K1" to="D4C4"/>
    <trip id="7h376" depart="25282.00" from="L4K4" to="E10E11"/>
    <trip id="7h377" depart="25282.00" from="A7B7" to="B1B0"/>
    <trip id="7h378" depart="25282.00" from="C3B3" to="K10K11"/>
    <trip id="7h379" depart="25283.00" from="L4K4" to="K7L7"/>
    <trip id="7h380" depart="25283.00" from="I10I9" to="H1H0"/>
    <trip id="7h381" depart="25283.00" from="B2C2" to="H1H0"/>
    <trip id="7h382" depart="25283.00" from="L4K4" to="B1B0"/>
    <trip id="7h383" depart="25284.00" from="A1B1" to="I4H4"/>
    <trip id="7h384" depart="25284.00" from="I3H3" to="G1H1"/>
    <trip id="7h385" depart="25284.00" from="L4K4" to="F4E4"/>
    <trip id="7h386" depart="25285.00" from="A1B1" to="B10A10"/>
    <trip id="7h387" depart="25285.00" from="F4F3" to="B2C2"/>
    <trip id="7h388" depart="25285.00" from="K0K1" to="K10K11"/>
    <trip id="7h389" depart="25285.00" from="E0E1" to="H1H0"/>
    <trip id="7h390" depart="25285.00" from="E6E7" to="B4A4"/>
    <trip id="7h391" depart="25285.00" from="A1B1" to="B4A4"/>
    <trip id="7h392" depart="25286.00" from="H1I1" to="B4A4"/>
    <trip id="7h393" depart="25286.00" from="C5C6" to="H1H0"/>
    <trip id="7h394" depart="25286.00" from="K0K1" to="G1H1"/>
    <trip id="7h395" depart="25286.00" from="A1B1" to="K7L7"/>
    <trip id="7h396" depart="25286.00" from="D8C8" to="B10A10"/>
    <trip id="7h397" depart="25287.00" from="H11H10" to="K1L1"/>
    <trip id="7h398" depart="25287.00" from="L10K10" to="K10K11"/>
    <trip id="7h399" depart="25287.00" from="E0E1" to="H1H0"/>
    <trip id="7h400" depart="25287.00" from="H11H10" to="B10A10"/>
    <trip id="7h401" depart="25288.00" from="gneE0" to="K10K11"/>
    <trip id="7h402" depart="25288.00" from="L4K4" to="E10E11"/>
    <trip id="7h403" depart="25288.00" from="L4K4" to="K10K11"/>
    <trip id="7h404" depart="25288.00" from="G7G8" to="G2G3"/>
    <trip id="7h405" depart="25288.00" from="A7B7" to="C8C9"/>
    <trip id="7h406" depart="25288.00" from="H11H10" to="H10G10"/>
    <trip id="7h407" depart="25288.00" from="H11H10" to="B1B0"/>
    <trip id="7h408" depart="25289.00" from="D10C10" to="K1L1"/>
    <trip id="7h409" depart="25289.00" from="L10K10" to="E10E11"/>
    <trip id="7h410" depart="25290.00" from="F10E10" to="K7L7"/>
    <trip id="7h411" depart="25290.00" from="H8H7" to="H3H2"/>
    <trip id="7h412" depart="25290.00" from="K0K1" to="B10A10"/>
    <trip id="7h413" depart="25291.00" from="A1B1" to="B8C8"/>
    <trip id="7h414" depart="25291.00" from="K0K1" to="E10E11"/>
    <trip id="7h415" depart="25291.00" from="A7B7" to="B4A4"/>
    <trip id="7h416" depart="25291.00" from="J4I4" to="H1H0"/>
    <trip id="7h417" depart="25291.00" from="A7B7" to="K7L7"/>
    <trip id="7h418" depart="25292.00" from="D8E8" to="K10K11"/>
    <trip id="7h419" depart="25292.00" from="B11B10" to="H1H0"/>
    <trip id="7h420" depart="25292.00" from="L4K4" to="B4A4"/>
    <trip id="7h421" depart="25292.00" from="B11B10" to="K10K11"/>
    <trip id="7h422" depart="25292.00" from="D6D5" to="K7L7"/>
    <trip id="7h423" depart="25293.00" from="A7B7" to="K10K11"/>
    <trip id="7h424" depart="25293.00" from="L4K4" to="K1L1"/>
    <trip id="7h425" depart="25293.00" from="B11B10" to="K10K11"/>
    <trip id="7h426" depart="25293.00" from="E0E1" to="B4A4"/>
    <trip id="7h427" depart="25293.00" from="H11H10" to="K7L7"/>
    <trip id="7h428" depart="25293.00" from="H1I1" to="H1H0"/>
    <trip id="7h429" depart="25294.00" from="J8I8" to="H1H0"/>
    <trip id="7h430" depart="25294.00" from="E0E1" to="K10K11"/>
    <trip id="7h431" depart="25294.00" from="K0K1" to="B10A10"/>
    <trip id="7h432" depart="25294.00" from="L4K4" to="K5K6"/>
    <trip id="7h433" depart="25294.00" from="L4K4" to="C2C3"/>
    <trip id="7h434" depart="25295.00" from="H11H10" to="H1H0"/>
    <trip id="7h435" depart="25295.00" from="L10K10" to="B1B0"/>
    <trip id="7h436" depart="25295.00" from="G11G10" to="K7L7"/>
    <trip id="7h437" depart="25296.00" from="H11H10" to="B1B0"/>
    <trip id="7h438" depart="25296.00" from="gneE0" to="H1H0"/>
    <trip id="7h439" depart="25296.00" from="A7B7" to="B1B0"/>
    <trip id="7h440" depart="25296.00" from="E3D3" to="B4A4"/>
    <trip id="7h441" depart="25297.00" from="K0K1" to="K1L1"/>
    <trip id="7h442" depart="25297.00" from="L10K10" to="K7L7"/>
    <trip id="7h443" depart="25297.00" from="J7K7" to="B1B0"/>
    <trip id="7h444" depart="25297.00" from="C3D3" to="B4A4"/>
    <trip id="7h445" depart="25297.00" from="B11B10" to="K10K11"/>
    <trip id="7h446" depart="25298.00" from="K0K1" to="B10A10"/>
    <trip id="7h447" depart="25298.00" from="A7B7" to="B5B4"/>
    <trip id="7h448" depart="25298.00" from="G3H3" to="K7L7"/>
    <trip id="7h449" depart="25298.00" from="A7B7" to="K7L7"/>
    <trip id="7h450" depart="25298.00" from="H11H10" to="B4A4"/>
    <trip id="7h451" depart="25298.00" from="A7B7" to="K10K11"/>
    <trip id="7h452" depart="25299.00" from="H11H10" to="E9D9"/>
    <trip id="7h453" depart="25299.00" from="B11B10" to="K10K11"/>
    <trip id="7h454" depart="25299.00" from="E0E1" to="K10K11"/>
    <trip id="7h455" depart="25299.00" from="H11H10" to="B10A10"/>
    <trip id="7h456" depart="25300.00" from="C5D5" to="H1H0"/>
    <trip id="7h457" depart="25300.00" from="B11B10" to="H1H0"/>
    <trip id="7h458" depart="25300.00" from="G7H7" to="K1L1"/>
    <trip id="7h459" depart="25300.00" from="G9G10" to="E1F1"/>