<?xml version="1.0" encoding="UTF-8"?>
<!-- generated on 2020-12-09 03:20:59.805057 by randomTrips.py v1_7_0+0000-714814baed
  options: -n .\data/grid01-bcn_50.net.xml <doubleminus>prefix=18h <doubleminus>fringe-factor 100 -b 64800 -e 68400 -p0.18055067957269672 <doubleminus>binomial 10 -odata/random/random_h_18-bcn_50.trips.rou.xml <doubleminus>edge-permission=passenger
-->
<routes xmlns:xsi="http://www.w3.org/2001/XMLSchema-instance" xsi:noNamespaceSchemaLocation="http://sumo.dlr.de/xsd/routes_file.xsd">
    <trip id="18h0" depart="64800.00" from="B11B10" to="B4A4"/>
    <trip id="18h1" depart="64800.00" from="E0E1" to="B10A10"/>
    <trip id="18h2" depart="64800.00" from="G5G6" to="B10A10"/>
    <trip id="18h3" depart="64800.00" from="I8I9" to="H1H0"/>
    <trip id="18h4" depart="64800.00" from="H11H10" to="K1L1"/>
    <trip id="18h5" depart="64800.00" from="L10K10" to="K10K11"/>
    <trip id="18h6" depart="64801.00" from="A7B7" to="K7L7"/>
    <trip id="18h7" depart="64801.00" from="A1B1" to="B10A10"/>
    <trip id="18h8" depart="64801.00" from="L4K4" to="E10E11"/>
    <trip id="18h9" depart="64801.00" from="L10K10" to="H2I2"/>
    <trip id="18h10" depart="64802.00" from="B11B10" to="B4A4"/>
    <trip id="18h11" depart="64802.00" from="B11B10" to="B10A10"/>
    <trip id="18h12" depart="64802.00" from="I10I9" to="E10E11"/>
    <trip id="18h13" depart="64802.00" from="B11B10" to="B4A4"/>
    <trip id="18h14" depart="64802.00" from="K0K1" to="B1B0"/>
    <trip id="18h15" depart="64802.00" from="gneE1" to="I3J3"/>
    <trip id="18h16" depart="64803.00" from="A1B1" to="C0C1"/>
    <trip id="18h17" depart="64803.00" from="B11B10" to="K7L7"/>
    <trip id="18h18" depart="64803.00" from="J1J0" to="E10E11"/>
    <trip id="18h19" depart="64803.00" from="B11B10" to="B4A4"/>
    <trip id="18h20" depart="64804.00" from="H11H10" to="K7L7"/>
    <trip id="18h21" depart="64804.00" from="B11B10" to="gneE7"/>
    <trip id="18h22" depart="64804.00" from="A1B1" to="B10A10"/>
    <trip id="18h23" depart="64804.00" from="H7I7" to="K1L1"/>
    <trip id="18h24" depart="64804.00" from="A1B1" to="E10E11"/>
    <trip id="18h25" depart="64804.00" from="L4K4" to="K1L1"/>
    <trip id="18h26" depart="64804.00" from="K0K1" to="K10K11"/>
    <trip id="18h27" depart="64804.00" from="B11B10" to="I4H4"/>
    <trip id="18h28" depart="64805.00" from="E0E1" to="E10E11"/>
    <trip id="18h29" depart="64805.00" from="G2G3" to="B1B0"/>
    <trip id="18h30" depart="64805.00" from="I3H3" to="H1H0"/>
    <trip id="18h31" depart="64805.00" from="K0K1" to="H1H0"/>
    <trip id="18h32" depart="64805.00" from="A1B1" to="C4B4"/>
    <trip id="18h33" depart="64806.00" from="L4K4" to="K5K6"/>
    <trip id="18h34" depart="64806.00" from="A1B1" to="K5K6"/>
    <trip id="18h35" depart="64806.00" from="F5E5" to="B10A10"/>
    <trip id="18h36" depart="64806.00" from="F10E10" to="H1H0"/>
    <trip id="18h37" depart="64806.00" from="L10K10" to="E10E11"/>
    <trip id="18h38" depart="64806.00" from="H11H10" to="K10K11"/>
    <trip id="18h39" depart="64807.00" from="B8A8" to="gneE5"/>
    <trip id="18h40" depart="64807.00" from="H11H10" to="B1B0"/>
    <trip id="18h41" depart="64807.00" from="D1D0" to="H1H0"/>
    <trip id="18h42" depart="64807.00" from="B11B10" to="B10A10"/>
    <trip id="18h43" depart="64807.00" from="L4K4" to="K1L1"/>
    <trip id="18h44" depart="64807.00" from="B11B10" to="J7K7"/>
    <trip id="18h45" depart="64807.00" from="A7B7" to="K7L7"/>
    <trip id="18h46" depart="64808.00" from="K8K9" to="K1L1"/>
    <trip id="18h47" depart="64808.00" from="A1B1" to="E10E11"/>
    <trip id="18h48" depart="64808.00" from="E6F6" to="K10K11"/>
    <trip id="18h49" depart="64808.00" from="E0E1" to="D1D2"/>
    <trip id="18h50" depart="64808.00" from="A7B7" to="E10E11"/>
    <trip id="18h51" depart="64808.00" from="B11B10" to="B4A4"/>
    <trip id="18h52" depart="64809.00" from="L10K10" to="H1H0"/>
    <trip id="18h53" depart="64809.00" from="gneE9" to="K1L1"/>
    <trip id="18h54" depart="64809.00" from="F5E5" to="B4A4"/>
    <trip id="18h55" depart="64809.00" from="A1B1" to="E10E11"/>
    <trip id="18h56" depart="64809.00" from="K7K8" to="E10E11"/>
    <trip id="18h57" depart="64809.00" from="L4K4" to="gneE5"/>
    <trip id="18h58" depart="64810.00" from="B11B10" to="K7L7"/>
    <trip id="18h59" depart="64810.00" from="K0K1" to="B10A10"/>
    <trip id="18h60" depart="64810.00" from="L10K10" to="B1B0"/>
    <trip id="18h61" depart="64810.00" from="A7B7" to="H1H0"/>
    <trip id="18h62" depart="64811.00" from="A7B7" to="K7L7"/>
    <trip id="18h63" depart="64811.00" from="H11H10" to="H3H2"/>
    <trip id="18h64" depart="64811.00" from="H11H10" to="H1H0"/>
    <trip id="18h65" depart="64811.00" from="K0K1" to="B4A4"/>
    <trip id="18h66" depart="64811.00" from="J9J10" to="B4A4"/>
    <trip id="18h67" depart="64811.00" from="K0K1" to="B10A10"/>
    <trip id="18h68" depart="64811.00" from="gneE8" to="gneE6"/>
    <trip id="18h69" depart="64811.00" from="B11B10" to="B4A4"/>
    <trip id="18h70" depart="64812.00" from="A7B7" to="K1L1"/>
    <trip id="18h71" depart="64812.00" from="L10K10" to="B4A4"/>
    <trip id="18h72" depart="64813.00" from="A7B7" to="B1B0"/>
    <trip id="18h73" depart="64813.00" from="B11B10" to="H1H0"/>
    <trip id="18h74" depart="64813.00" from="I10I11" to="B4A4"/>
    <trip id="18h75" depart="64813.00" from="L4K4" to="K1L1"/>
    <trip id="18h76" depart="64813.00" from="E0E1" to="B4A4"/>
    <trip id="18h77" depart="64813.00" from="K0K1" to="I2I1"/>
    <trip id="18h78" depart="64813.00" from="K0K1" to="H1H0"/>
    <trip id="18h79" depart="64813.00" from="A1B1" to="B10A10"/>
    <trip id="18h80" depart="64814.00" from="L10K10" to="H1H0"/>
    <trip id="18h81" depart="64814.00" from="A7B7" to="B6B5"/>
    <trip id="18h82" depart="64814.00" from="B11B10" to="B1B0"/>
    <trip id="18h83" depart="64815.00" from="H4G4" to="B1B0"/>
    <trip id="18h84" depart="64815.00" from="K0K1" to="C8C7"/>
    <trip id="18h85" depart="64816.00" from="K9K10" to="B1B0"/>
    <trip id="18h86" depart="64816.00" from="L10K10" to="E3E4"/>
    <trip id="18h87" depart="64816.00" from="L10K10" to="B4A4"/>
    <trip id="18h88" depart="64816.00" from="A7B7" to="C5D5"/>
    <trip id="18h89" depart="64816.00" from="I4H4" to="E10E11"/>
    <trip id="18h90" depart="64817.00" from="L4K4" to="B1B0"/>
    <trip id="18h91" depart="64817.00" from="L4K4" to="B4A4"/>
    <trip id="18h92" depart="64817.00" from="E0E1" to="K10K11"/>
    <trip id="18h93" depart="64817.00" from="H11H10" to="G8F8"/>
    <trip id="18h94" depart="64817.00" from="H11H10" to="B4A4"/>
    <trip id="18h95" depart="64817.00" from="L4K4" to="H1H0"/>
    <trip id="18h96" depart="64818.00" from="A1B1" to="J5K5"/>
    <trip id="18h97" depart="64818.00" from="B8C8" to="K1L1"/>
    <trip id="18h98" depart="64818.00" from="B7B6" to="E10E11"/>
    <trip id="18h99" depart="64818.00" from="B11B10" to="B1B0"/>
    <trip id="18h100" depart="64818.00" from="L4K4" to="K10K11"/>
    <trip id="18h101" depart="64819.00" from="H11H10" to="A3B3"/>
    <trip id="18h102" depart="64819.00" from="E0E1" to="H1H0"/>
    <trip id="18h103" depart="64819.00" from="E0E1" to="B4A4"/>
    <trip id="18h104" depart="64819.00" from="L4K4" to="K1L1"/>
    <trip id="18h105" depart="64819.00" from="A1B1" to="H10G10"/>
    <trip id="18h106" depart="64819.00" from="L10K10" to="K10K11"/>
    <trip id="18h107" depart="64819.00" from="A9B9" to="B10A10"/>
    <trip id="18h108" depart="64820.00" from="F10E10" to="K1L1"/>
    <trip id="18h109" depart="64820.00" from="E0E1" to="H8H7"/>
    <trip id="18h110" depart="64820.00" from="K0K1" to="G10F10"/>
    <trip id="18h111" depart="64820.00" from="J1J2" to="B10A10"/>
    <trip id="18h112" depart="64820.00" from="E0E1" to="B1B0"/>
    <trip id="18h113" depart="64820.00" from="A1B1" to="B4A4"/>
    <trip id="18h114" depart="64821.00" from="L10K10" to="J7J8"/>
    <trip id="18h115" depart="64821.00" from="L10K10" to="H1H0"/>
    <trip id="18h116" depart="64822.00" from="B11B10" to="B4A4"/>
    <trip id="18h117" depart="64822.00" from="H7H6" to="B4A4"/>
    <trip id="18h118" depart="64822.00" from="B11B10" to="B4A4"/>
    <trip id="18h119" depart="64822.00" from="H11H10" to="B1B0"/>
    <trip id="18h120" depart="64822.00" from="K0K1" to="K10K11"/>
    <trip id="18h121" depart="64822.00" from="E0E1" to="H1H0"/>
    <trip id="18h122" depart="64822.00" from="B11B10" to="E10E11"/>
    <trip id="18h123" depart="64823.00" from="A1B1" to="D7E7"/>
    <trip id="18h124" depart="64823.00" from="K0K1" to="H1H0"/>
    <trip id="18h125" depart="64824.00" from="B11B10" to="E10E11"/>
    <trip id="18h126" depart="64824.00" from="D10C10" to="K10K11"/>
    <trip id="18h127" depart="64824.00" from="A7B7" to="E6F6"/>
    <trip id="18h128" depart="64824.00" from="H5G5" to="B10A10"/>
    <trip id="18h129" depart="64824.00" from="H11H10" to="B10A10"/>
    <trip id="18h130" depart="64824.00" from="E4D4" to="B10A10"/>
    <trip id="18h131" depart="64824.00" from="B11B10" to="C5C6"/>
    <trip id="18h132" depart="64824.00" from="K0K1" to="K1L1"/>
    <trip id="18h133" depart="64825.00" from="A1B1" to="B10A10"/>
    <trip id="18h134" depart="64825.00" from="gneE9" to="D7D6"/>
    <trip id="18h135" depart="64825.00" from="A1B1" to="B1B0"/>
    <trip id="18h136" depart="64825.00" from="J8I8" to="H1H0"/>
    <trip id="18h137" depart="64825.00" from="K0K1" to="K10K11"/>
    <trip id="18h138" depart="64826.00" from="H11H10" to="K10K11"/>
    <trip id="18h139" depart="64826.00" from="L10K10" to="K7L7"/>
    <trip id="18h140" depart="64826.00" from="A1B1" to="B8A8"/>
    <trip id="18h141" depart="64826.00" from="K0K1" to="B10A10"/>
    <trip id="18h142" depart="64826.00" from="K10J10" to="K1L1"/>
    <trip id="18h143" depart="64827.00" from="L4K4" to="K1L1"/>
    <trip id="18h144" depart="64827.00" from="E0E1" to="E10E11"/>
    <trip id="18h145" depart="64827.00" from="D2C2" to="K1L1"/>
    <trip id="18h146" depart="64827.00" from="L4K4" to="I10I9"/>
    <trip id="18h147" depart="64827.00" from="K0K1" to="K7L7"/>
    <trip id="18h148" depart="64827.00" from="L10K10" to="H1H0"/>
    <trip id="18h149" depart="64827.00" from="E0E1" to="K10K11"/>
    <trip id="18h150" depart="64828.00" from="L10K10" to="K1L1"/>
    <trip id="18h151" depart="64828.00" from="L10K10" to="B4A4"/>
    <trip id="18h152" depart="64828.00" from="H11H10" to="E10E11"/>
    <trip id="18h153" depart="64828.00" from="L10K10" to="B1B0"/>
    <trip id="18h154" depart="64828.00" from="L10K10" to="D1E1"/>
    <trip id="18h155" depart="64828.00" from="A1B1" to="K7L7"/>
    <trip id="18h156" depart="64828.00" from="K0K1" to="F6F7"/>
    <trip id="18h157" depart="64829.00" from="L10K10" to="B10A10"/>
    <trip id="18h158" depart="64829.00" from="K0K1" to="B5B4"/>
    <trip id="18h159" depart="64829.00" from="H11H10" to="E10E11"/>
    <trip id="18h160" depart="64829.00" from="K0K1" to="B4A4"/>
    <trip id="18h161" depart="64829.00" from="A7B7" to="B1B0"/>
    <trip id="18h162" depart="64829.00" from="H11H10" to="K10K11"/>
    <trip id="18h163" depart="64830.00" from="B11B10" to="F4F3"/>
    <trip id="18h164" depart="64830.00" from="B11B10" to="B10A10"/>
    <trip id="18h165" depart="64830.00" from="B11B10" to="B1B0"/>
    <trip id="18h166" depart="64830.00" from="H11H10" to="B4A4"/>
    <trip id="18h167" depart="64830.00" from="K0K1" to="B1B0"/>
    <trip id="18h168" depart="64830.00" from="L10K10" to="H1H0"/>
    <trip id="18h169" depart="64831.00" from="E0E1" to="B1B0"/>
    <trip id="18h170" depart="64831.00" from="L4K4" to="F1G1"/>
    <trip id="18h171" depart="64831.00" from="A1B1" to="H8H7"/>
    <trip id="18h172" depart="64831.00" from="A7B7" to="H1H0"/>
    <trip id="18h173" depart="64831.00" from="gneE3" to="B1B0"/>
    <trip id="18h174" depart="64831.00" from="H11H10" to="E10E11"/>
    <trip id="18h175" depart="64832.00" from="L10K10" to="gneE1"/>
    <trip id="18h176" depart="64832.00" from="H4G4" to="H1H0"/>
    <trip id="18h177" depart="64832.00" from="B11B10" to="J3J2"/>
    <trip id="18h178" depart="64832.00" from="A7B7" to="B10A10"/>
    <trip id="18h179" depart="64832.00" from="E0E1" to="H1H0"/>
    <trip id="18h180" depart="64832.00" from="B11B10" to="K10K11"/>
    <trip id="18h181" depart="64832.00" from="K0K1" to="K7L7"/>
    <trip id="18h182" depart="64833.00" from="H11H10" to="I6I7"/>
    <trip id="18h183" depart="64833.00" from="A7B7" to="B5C5"/>
    <trip id="18h184" depart="64834.00" from="A7B7" to="K10K11"/>
    <trip id="18h185" depart="64834.00" from="F9G9" to="B10A10"/>
    <trip id="18h186" depart="64834.00" from="E0E1" to="C3B3"/>
    <trip id="18h187" depart="64834.00" from="A1B1" to="K7L7"/>
    <trip id="18h188" depart="64835.00" from="A1B1" to="K10K11"/>
    <trip id="18h189" depart="64835.00" from="I9H9" to="K7L7"/>
    <trip id="18h190" depart="64835.00" from="H11H10" to="I10I11"/>
    <trip id="18h191" depart="64835.00" from="A1B1" to="D6C6"/>
    <trip id="18h192" depart="64835.00" from="J8I8" to="K1L1"/>
    <trip id="18h193" depart="64835.00" from="K0K1" to="B4A4"/>
    <trip id="18h194" depart="64835.00" from="E10D10" to="B9B8"/>
    <trip id="18h195" depart="64836.00" from="L4K4" to="E10E11"/>
    <trip id="18h196" depart="64836.00" from="L8K8" to="J2I2"/>
    <trip id="18h197" depart="64836.00" from="E0E1" to="B1B0"/>
    <trip id="18h198" depart="64836.00" from="K0K1" to="H6H5"/>
    <trip id="18h199" depart="64836.00" from="H11H10" to="K7L7"/>
    <trip id="18h200" depart="64836.00" from="K0K1" to="B1B0"/>
    <trip id="18h201" depart="64836.00" from="A7B7" to="H1H0"/>
    <trip id="18h202" depart="64837.00" from="A1B1" to="gneE2"/>
    <trip id="18h203" depart="64837.00" from="A7B7" to="K1L1"/>
    <trip id="18h204" depart="64837.00" from="K0K1" to="G7G8"/>
    <trip id="18h205" depart="64837.00" from="L10K10" to="K7L7"/>
    <trip id="18h206" depart="64837.00" from="H11H10" to="E10E11"/>
    <trip id="18h207" depart="64837.00" from="L10K10" to="K1L1"/>
    <trip id="18h208" depart="64837.00" from="L10K10" to="E10E11"/>
    <trip id="18h209" depart="64838.00" from="L10K10" to="B4A4"/>
    <trip id="18h210" depart="64838.00" from="H11H10" to="gneE8"/>
    <trip id="18h211" depart="64838.00" from="A7B7" to="H1H0"/>
    <trip id="18h212" depart="64838.00" from="H11H10" to="H1H0"/>
    <trip id="18h213" depart="64838.00" from="C2C3" to="B1B0"/>
    <trip id="18h214" depart="64838.00" from="K3J3" to="B10A10"/>
    <trip id="18h215" depart="64839.00" from="J5K5" to="K1L1"/>
    <trip id="18h216" depart="64839.00" from="A1B1" to="G3H3"/>
    <trip id="18h217" depart="64839.00" from="H11H10" to="E1F1"/>
    <trip id="18h218" depart="64839.00" from="J1J0" to="B1B0"/>
    <trip id="18h219" depart="64840.00" from="L4K4" to="D1D0"/>
    <trip id="18h220" depart="64840.00" from="C10B10" to="K10K11"/>
    <trip id="18h221" depart="64840.00" from="A1B1" to="H9H8"/>
    <trip id="18h222" depart="64841.00" from="A3B3" to="I10H10"/>
    <trip id="18h223" depart="64841.00" from="K0K1" to="K7L7"/>
    <trip id="18h224" depart="64841.00" from="L10K10" to="B4A4"/>
    <trip id="18h225" depart="64841.00" from="A7B7" to="H1H0"/>
    <trip id="18h226" depart="64842.00" from="A1B1" to="K1L1"/>
    <trip id="18h227" depart="64842.00" from="L4K4" to="B1B0"/>
    <trip id="18h228" depart="64842.00" from="B11B10" to="B4A4"/>
    <trip id="18h229" depart="64842.00" from="L10K10" to="K7L7"/>
    <trip id="18h230" depart="64842.00" from="E0E1" to="D5D4"/>
    <trip id="18h231" depart="64842.00" from="B11B10" to="K1L1"/>
    <trip id="18h232" depart="64843.00" from="E0E1" to="F4E4"/>
    <trip id="18h233" depart="64843.00" from="H11H10" to="H1H0"/>
    <trip id="18h234" depart="64843.00" from="L4K4" to="J2I2"/>
    <trip id="18h235" depart="64843.00" from="H11H10" to="K10K11"/>
    <trip id="18h236" depart="64843.00" from="H11H10" to="G1G0"/>
    <trip id="18h237" depart="64843.00" from="L10K10" to="H1H0"/>
    <trip id="18h238" depart="64843.00" from="I1J1" to="H4G4"/>
    <trip id="18h239" depart="64844.00" from="E0E1" to="H1H0"/>
    <trip id="18h240" depart="64844.00" from="B11B10" to="K10K11"/>
    <trip id="18h241" depart="64845.00" from="A7B7" to="H1H0"/>
    <trip id="18h242" depart="64845.00" from="L4K4" to="K1L1"/>
    <trip id="18h243" depart="64845.00" from="L10K10" to="F3G3"/>
    <trip id="18h244" depart="64845.00" from="A7B7" to="K7L7"/>
    <trip id="18h245" depart="64845.00" from="L4K4" to="K1L1"/>
    <trip id="18h246" depart="64846.00" from="L10K10" to="B10A10"/>
    <trip id="18h247" depart="64846.00" from="E10D10" to="J9J8"/>
    <trip id="18h248" depart="64846.00" from="B11B10" to="B10A10"/>
    <trip id="18h249" depart="64847.00" from="A1B1" to="K1L1"/>
    <trip id="18h250" depart="64847.00" from="E0E1" to="B1B0"/>
    <trip id="18h251" depart="64847.00" from="F9F8" to="B10A10"/>
    <trip id="18h252" depart="64847.00" from="E0E1" to="J8K8"/>
    <trip id="18h253" depart="64848.00" from="K0K1" to="B1B0"/>
    <trip id="18h254" depart="64848.00" from="A3B3" to="F7G7"/>
    <trip id="18h255" depart="64848.00" from="L4K4" to="B10A10"/>
    <trip id="18h256" depart="64848.00" from="E0E1" to="K7L7"/>
    <trip id="18h257" depart="64848.00" from="K0K1" to="H1H0"/>
    <trip id="18h258" depart="64848.00" from="E0E1" to="B1B0"/>
    <trip id="18h259" depart="64848.00" from="L10K10" to="E10E11"/>
    <trip id="18h260" depart="64849.00" from="K9K10" to="B4A4"/>
    <trip id="18h261" depart="64849.00" from="H11H10" to="B10A10"/>
    <trip id="18h262" depart="64849.00" from="B11B10" to="K1L1"/>
    <trip id="18h263" depart="64849.00" from="A7B7" to="K7L7"/>
    <trip id="18h264" depart="64849.00" from="L10K10" to="B1B0"/>
    <trip id="18h265" depart="64849.00" from="B11B10" to="B1B0"/>
    <trip id="18h266" depart="64850.00" from="A1B1" to="K1L1"/>
    <trip id="18h267" depart="64850.00" from="C3D3" to="B1B0"/>
    <trip id="18h268" depart="64850.00" from="K0K1" to="H1H0"/>
    <trip id="18h269" depart="64850.00" from="K4J4" to="G9G10"/>
    <trip id="18h270" depart="64850.00" from="G4F4" to="K7L7"/>
    <trip id="18h271" depart="64850.00" from="K6L6" to="K1L1"/>
    <trip id="18h272" depart="64850.00" from="E2E3" to="K7L7"/>
    <trip id="18h273" depart="64850.00" from="F2E2" to="E10E11"/>
    <trip id="18h274" depart="64851.00" from="L4K4" to="B10A10"/>
    <trip id="18h275" depart="64851.00" from="H11H10" to="B10A10"/>
    <trip id="18h276" depart="64851.00" from="I10H10" to="H1H0"/>
    <trip id="18h277" depart="64851.00" from="gneE4" to="H1H0"/>
    <trip id="18h278" depart="64851.00" from="H11H10" to="B10A10"/>
    <trip id="18h279" depart="64852.00" from="E0E1" to="B4A4"/>
    <trip id="18h280" depart="64852.00" from="E0E1" to="E10E11"/>
    <trip id="18h281" depart="64852.00" from="E0E1" to="J6I6"/>
    <trip id="18h282" depart="64852.00" from="A7B7" to="K7L7"/>
    <trip id="18h283" depart="64852.00" from="L10K10" to="B10A10"/>
    <trip id="18h284" depart="64852.00" from="K0K1" to="K1L1"/>
    <trip id="18h285" depart="64853.00" from="A7B7" to="D8E8"/>
    <trip id="18h286" depart="64853.00" from="H11H10" to="B4A4"/>
    <trip id="18h287" depart="64853.00" from="A7B7" to="K1L1"/>
    <trip id="18h288" depart="64854.00" from="K0K1" to="H1H0"/>
    <trip id="18h289" depart="64854.00" from="L4K4" to="K1L1"/>
    <trip id="18h290" depart="64854.00" from="A7B7" to="K10K11"/>
    <trip id="18h291" depart="64854.00" from="D1E1" to="B10A10"/>
    <trip id="18h292" depart="64855.00" from="A7B7" to="I10H10"/>
    <trip id="18h293" depart="64855.00" from="K0K1" to="B4A4"/>
    <trip id="18h294" depart="64855.00" from="D2C2" to="E10E11"/>
    <trip id="18h295" depart="64855.00" from="A1B1" to="B1B0"/>
    <trip id="18h296" depart="64856.00" from="J4I4" to="F5E5"/>
    <trip id="18h297" depart="64856.00" from="B11B10" to="K10K11"/>
    <trip id="18h298" depart="64856.00" from="E0E1" to="B4A4"/>
    <trip id="18h299" depart="64856.00" from="J7J6" to="B10A10"/>
    <trip id="18h300" depart="64856.00" from="H11H10" to="B10A10"/>
    <trip id="18h301" depart="64856.00" from="B11B10" to="B1B0"/>
    <trip id="18h302" depart="64856.00" from="C5D5" to="B10A10"/>
    <trip id="18h303" depart="64857.00" from="E0E1" to="K10K11"/>
    <trip id="18h304" depart="64857.00" from="L10K10" to="K1L1"/>
    <trip id="18h305" depart="64857.00" from="L10K10" to="B10A10"/>
    <trip id="18h306" depart="64857.00" from="L4K4" to="K1L1"/>
    <trip id="18h307" depart="64857.00" from="A7B7" to="B10A10"/>
    <trip id="18h308" depart="64857.00" from="L10K10" to="H2I2"/>
    <trip id="18h309" depart="64858.00" from="L10K10" to="B4A4"/>
    <trip id="18h310" depart="64858.00" from="E0E1" to="B7C7"/>
    <trip id="18h311" depart="64858.00" from="C8C9" to="B1B0"/>
    <trip id="18h312" depart="64858.00" from="A7B7" to="G7H7"/>
    <trip id="18h313" depart="64858.00" from="K0K1" to="K1L1"/>
    <trip id="18h314" depart="64858.00" from="A7B7" to="B1B0"/>
    <trip id="18h315" depart="64859.00" from="K1K2" to="G10F10"/>
    <trip id="18h316" depart="64859.00" from="L4K4" to="H1H0"/>
    <trip id="18h317" depart="64860.00" from="A1B1" to="E10E11"/>
    <trip id="18h318" depart="64860.00" from="B11B10" to="B10A10"/>
    <trip id="18h319" depart="64860.00" from="B7C7" to="E10E11"/>
    <trip id="18h320" depart="64860.00" from="L10K10" to="B10A10"/>
    <trip id="18h321" depart="64860.00" from="E4E5" to="H1H0"/>
    <trip id="18h322" depart="64861.00" from="L10K10" to="I9J9"/>
    <trip id="18h323" depart="64861.00" from="F10F11" to="B1B0"/>
    <trip id="18h324" depart="64861.00" from="A7B7" to="K7L7"/>
    <trip id="18h325" depart="64861.00" from="K0K1" to="G5G4"/>
    <trip id="18h326" depart="64861.00" from="B11B10" to="E10E11"/>
    <trip id="18h327" depart="64861.00" from="H11H10" to="B1B0"/>
    <trip id="18h328" depart="64861.00" from="B11B10" to="E10E11"/>
    <trip id="18h329" depart="64861.00" from="H11H10" to="K1L1"/>
    <trip id="18h330" depart="64862.00" from="A1B1" to="K10K11"/>
    <trip id="18h331" depart="64862.00" from="K0K1" to="J1K1"/>
    <trip id="18h332" depart="64862.00" from="H11H10" to="B1B0"/>
    <trip id="18h333" depart="64862.00" from="L4K4" to="K10K11"/>
    <trip id="18h334" depart="64862.00" from="H11H10" to="K7L7"/>
    <trip id="18h335" depart="64862.00" from="E0E1" to="K1L1"/>
    <trip id="18h336" depart="64863.00" from="I6H6" to="E10E11"/>
    <trip id="18h337" depart="64863.00" from="E0E1" to="B1B0"/>
    <trip id="18h338" depart="64863.00" from="L4K4" to="F5G5"/>
    <trip id="18h339" depart="64863.00" from="A7B7" to="B10A10"/>
    <trip id="18h340" depart="64863.00" from="K0K1" to="K1L1"/>
    <trip id="18h341" depart="64864.00" from="D11D10" to="K10K11"/>
    <trip id="18h342" depart="64864.00" from="E0E1" to="B1B0"/>
    <trip id="18h343" depart="64864.00" from="E0E1" to="E10E11"/>
    <trip id="18h344" depart="64864.00" from="E0E1" to="B4A4"/>
    <trip id="18h345" depart="64864.00" from="H11H10" to="B7B6"/>
    <trip id="18h346" depart="64865.00" from="L10K10" to="E10E11"/>
    <trip id="18h347" depart="64865.00" from="B11B10" to="E10E11"/>
    <trip id="18h348" depart="64865.00" from="L4K4" to="K1L1"/>
    <trip id="18h349" depart="64865.00" from="B11B10" to="I4H4"/>
    <trip id="18h350" depart="64866.00" from="L10K10" to="K1L1"/>
    <trip id="18h351" depart="64866.00" from="K0K1" to="B4A4"/>
    <trip id="18h352" depart="64866.00" from="E0E1" to="K7L7"/>
    <trip id="18h353" depart="64866.00" from="E0E1" to="D7D6"/>
    <trip id="18h354" depart="64866.00" from="A1B1" to="G3H3"/>
    <trip id="18h355" depart="64866.00" from="gneE4" to="E10E11"/>
    <trip id="18h356" depart="64866.00" from="L4K4" to="K1L1"/>
    <trip id="18h357" depart="64867.00" from="B11B10" to="K1L1"/>
    <trip id="18h358" depart="64867.00" from="K0K1" to="E10E11"/>
    <trip id="18h359" depart="64867.00" from="A1B1" to="B4A4"/>
    <trip id="18h360" depart="64867.00" from="K0K1" to="H1H0"/>
    <trip id="18h361" depart="64867.00" from="B11B10" to="B4A4"/>
    <trip id="18h362" depart="64867.00" from="E0E1" to="K1L1"/>
    <trip id="18h363" depart="64867.00" from="A7B7" to="K7L7"/>
    <trip id="18h364" depart="64868.00" from="H10G10" to="B4A4"/>
    <trip id="18h365" depart="64868.00" from="E0E1" to="H1H0"/>
    <trip id="18h366" depart="64868.00" from="E0E1" to="J6I6"/>
    <trip id="18h367" depart="64868.00" from="L4K4" to="B10A10"/>
    <trip id="18h368" depart="64868.00" from="G6H6" to="gneE0"/>
    <trip id="18h369" depart="64868.00" from="E8E9" to="I10I9"/>
    <trip id="18h370" depart="64868.00" from="A1B1" to="K1L1"/>
    <trip id="18h371" depart="64868.00" from="K0K1" to="H8G8"/>
    <trip id="18h372" depart="64869.00" from="A1B1" to="H1H0"/>
    <trip id="18h373" depart="64869.00" from="K4K5" to="E6D6"/>
    <trip id="18h374" depart="64869.00" from="K3K4" to="E2E3"/>
    <trip id="18h375" depart="64869.00" from="A1B1" to="B1B0"/>
    <trip id="18h376" depart="64870.00" from="L4K4" to="H10G10"/>
    <trip id="18h377" depart="64870.00" from="B11B10" to="K10K11"/>
    <trip id="18h378" depart="64870.00" from="E0E1" to="K1L1"/>
    <trip id="18h379" depart="64870.00" from="A7B7" to="E10E11"/>
    <trip id="18h380" depart="64870.00" from="L4K4" to="G1G0"/>
    <trip id="18h381" depart="64871.00" from="L4K4" to="H1H0"/>
    <trip id="18h382" depart="64871.00" from="H11H10" to="K1L1"/>
    <trip id="18h383" depart="64871.00" from="C2C3" to="B10A10"/>
    <trip id="18h384" depart="64871.00" from="H11H10" to="E10E11"/>
    <trip id="18h385" depart="64871.00" from="A1B1" to="K1L1"/>
    <trip id="18h386" depart="64871.00" from="gneE8" to="B4A4"/>
    <trip id="18h387" depart="64872.00" from="I2I1" to="E10E11"/>
    <trip id="18h388" depart="64872.00" from="H11H10" to="K1L1"/>
    <trip id="18h389" depart="64872.00" from="A1B1" to="K1L1"/>
    <trip id="18h390" depart="64872.00" from="E0E1" to="H1H0"/>
    <trip id="18h391" depart="64873.00" from="K0K1" to="H1H0"/>
    <trip id="18h392" depart="64873.00" from="E0E1" to="I8I7"/>
    <trip id="18h393" depart="64873.00" from="A7B7" to="K10K11"/>
    <trip id="18h394" depart="64873.00" from="E0E1" to="H1H0"/>
    <trip id="18h395" depart="64873.00" from="B11B10" to="E10E11"/>
    <trip id="18h396" depart="64873.00" from="L4K4" to="F8F7"/>
    <trip id="18h397" depart="64873.00" from="L10K10" to="E10E11"/>
    <trip id="18h398" depart="64874.00" from="A1B1" to="K10K11"/>
    <trip id="18h399" depart="64874.00" from="D5E5" to="B10A10"/>
    <trip id="18h400" depart="64874.00" from="L4K4" to="K1L1"/>
    <trip id="18h401" depart="64874.00" from="A7B7" to="B1C1"/>
    <trip id="18h402" depart="64875.00" from="L10K10" to="B10A10"/>
    <trip id="18h403" depart="64875.00" from="L10K10" to="H1H0"/>
    <trip id="18h404" depart="64875.00" from="B7B6" to="gneE9"/>
    <trip id="18h405" depart="64875.00" from="K0K1" to="K1L1"/>
    <trip id="18h406" depart="64875.00" from="L4K4" to="I4I3"/>
    <trip id="18h407" depart="64875.00" from="K0K1" to="D4C4"/>
    <trip id="18h408" depart="64876.00" from="L4K4" to="E10E11"/>
    <trip id="18h409" depart="64876.00" from="A7B7" to="B1B0"/>
    <trip id="18h410" depart="64876.00" from="C3B3" to="K10K11"/>
    <trip id="18h411" depart="64876.00" from="L4K4" to="K7L7"/>
    <trip id="18h412" depart="64876.00" from="I10I9" to="H1H0"/>
    <trip id="18h413" depart="64876.00" from="B2C2" to="H1H0"/>
    <trip id="18h414" depart="64877.00" from="A7B7" to="K7L7"/>
    <trip id="18h415" depart="64877.00" from="J2K2" to="K10K11"/>
    <trip id="18h416" depart="64877.00" from="A1B1" to="I4H4"/>
    <trip id="18h417" depart="64878.00" from="I3H3" to="G1H1"/>
    <trip id="18h418" depart="64878.00" from="L4K4" to="F4E4"/>
    <trip id="18h419" depart="64878.00" from="A1B1" to="B10A10"/>
    <trip id="18h420" depart="64878.00" from="F4F3" to="B2C2"/>
    <trip id="18h421" depart="64878.00" from="K0K1" to="K10K11"/>
    <trip id="18h422" depart="64879.00" from="E0E1" to="H1H0"/>
    <trip id="18h423" depart="64879.00" from="E6E7" to="B4A4"/>
    <trip id="18h424" depart="64879.00" from="A1B1" to="B4A4"/>
    <trip id="18h425" depart="64879.00" from="H1I1" to="B4A4"/>
    <trip id="18h426" depart="64879.00" from="C5C6" to="H1H0"/>
    <trip id="18h427" depart="64879.00" from="K0K1" to="G1H1"/>
    <trip id="18h428" depart="64879.00" from="G1H1" to="B6B5"/>
    <trip id="18h429" depart="64879.00" from="L4K4" to="G5G6"/>
    <trip id="18h430" depart="64880.00" from="D8C8" to="B10A10"/>
    <trip id="18h431" depart="64880.00" from="L10K10" to="J11J10"/>
    <trip id="18h432" depart="64880.00" from="H11H10" to="K1L1"/>
    <trip id="18h433" depart="64880.00" from="L10K10" to="K10K11"/>
    <trip id="18h434" depart="64880.00" from="E0E1" to="H1H0"/>
    <trip id="18h435" depart="64880.00" from="H11H10" to="B10A10"/>
    <trip id="18h436" depart="64880.00" from="K0K1" to="B4A4"/>
    <trip id="18h437" depart="64881.00" from="L4K4" to="E10E11"/>
    <trip id="18h438" depart="64881.00" from="L4K4" to="K10K11"/>
    <trip id="18h439" depart="64881.00" from="G7G8" to="G2G3"/>
    <trip id="18h440" depart="64881.00" from="A7B7" to="C8C9"/>
    <trip id="18h441" depart="64881.00" from="E1F1" to="H1H0"/>
    <trip id="18h442" depart="64881.00" from="C5D5" to="H1H0"/>
    <trip id="18h443" depart="64881.00" from="gneE10" to="K10K11"/>
    <trip id="18h444" depart="64881.00" from="D10C10" to="K1L1"/>
    <trip id="18h445" depart="64882.00" from="K0K1" to="B4A4"/>
    <trip id="18h446" depart="64882.00" from="K0K1" to="K7L7"/>
    <trip id="18h447" depart="64882.00" from="F10E10" to="K7L7"/>
    <trip id="18h448" depart="64883.00" from="H8H7" to="H3H2"/>
    <trip id="18h449" depart="64883.00" from="K0K1" to="B10A10"/>
    <trip id="18h450" depart="64883.00" from="A1B1" to="B8C8"/>
    <trip id="18h451" depart="64883.00" from="K0K1" to="E10E11"/>
    <trip id="18h452" depart="64884.00" from="A7B7" to="B4A4"/>