<?xml version="1.0" encoding="UTF-8"?>
<!-- generated on 2020-12-09 03:20:41.955255 by randomTrips.py v1_7_0+0000-714814baed
  options: -n .\data/grid01-bcn_50.net.xml <doubleminus>prefix=3h <doubleminus>fringe-factor 100 -b 10800 -e 14400 -p2.479338842975207 <doubleminus>binomial 10 -odata/random/random_h_3-bcn_50.trips.rou.xml <doubleminus>edge-permission=passenger
-->
<routes xmlns:xsi="http://www.w3.org/2001/XMLSchema-instance" xsi:noNamespaceSchemaLocation="http://sumo.dlr.de/xsd/routes_file.xsd">
    <trip id="3h0" depart="10800.00" from="B11B10" to="B4A4"/>
    <trip id="3h1" depart="10800.00" from="B11B10" to="G5G6"/>
    <trip id="3h2" depart="10800.00" from="A9B9" to="I8I9"/>
    <trip id="3h3" depart="10801.00" from="L10K10" to="K10K11"/>
    <trip id="3h4" depart="10805.00" from="C0C1" to="B4A4"/>
    <trip id="3h5" depart="10809.00" from="K0K1" to="K10K11"/>
    <trip id="3h6" depart="10811.00" from="C4B4" to="B10A10"/>
    <trip id="3h7" depart="10825.00" from="L10K10" to="B4A4"/>
    <trip id="3h8" depart="10827.00" from="K0K1" to="I2I1"/>
    <trip id="3h9" depart="10827.00" from="A1B1" to="K7L7"/>
    <trip id="3h10" depart="10830.00" from="K0K1" to="C8C7"/>
    <trip id="3h11" depart="10832.00" from="A7B7" to="C5D5"/>
    <trip id="3h12" depart="10834.00" from="L4K4" to="H1H0"/>
    <trip id="3h13" depart="10836.00" from="B11B10" to="E10E11"/>
    <trip id="3h14" depart="10838.00" from="B11B10" to="F10E10"/>
    <trip id="3h15" depart="10839.00" from="K0K1" to="K10K11"/>
    <trip id="3h16" depart="10844.00" from="D7E7" to="K10K11"/>
    <trip id="3h17" depart="10845.00" from="D10C10" to="K10K11"/>
    <trip id="3h18" depart="10846.00" from="E0E1" to="H1H0"/>
    <trip id="3h19" depart="10846.00" from="I4I5" to="B1B0"/>
    <trip id="3h20" depart="10847.00" from="H11H10" to="gneE9"/>
    <trip id="3h21" depart="10848.00" from="A7B7" to="B1B0"/>
    <trip id="3h22" depart="10849.00" from="B8A8" to="K10K11"/>
    <trip id="3h23" depart="10854.00" from="L10K10" to="B1B0"/>
    <trip id="3h24" depart="10855.00" from="L4K4" to="B10A10"/>
    <trip id="3h25" depart="10858.00" from="H11H10" to="B4A4"/>
    <trip id="3h26" depart="10863.00" from="E0E1" to="H1H0"/>
    <trip id="3h27" depart="10866.00" from="E0E1" to="C3B3"/>
    <trip id="3h28" depart="10867.00" from="K0K1" to="E9D9"/>
    <trip id="3h29" depart="10876.00" from="G3H3" to="H1H0"/>
    <trip id="3h30" depart="10879.00" from="A1B1" to="H9H8"/>
    <trip id="3h31" depart="10882.00" from="L10K10" to="K7L7"/>
    <trip id="3h32" depart="10889.00" from="H11H10" to="E10E11"/>
    <trip id="3h33" depart="10890.00" from="L10K10" to="H1H0"/>
    <trip id="3h34" depart="10892.00" from="E0E1" to="E10E11"/>
    <trip id="3h35" depart="10894.00" from="K9K10" to="B4A4"/>
    <trip id="3h36" depart="10895.00" from="L10K10" to="B1B0"/>
    <trip id="3h37" depart="10895.00" from="A1B1" to="K1L1"/>
    <trip id="3h38" depart="10904.00" from="L4K4" to="K1L1"/>
    <trip id="3h39" depart="10905.00" from="L10K10" to="H1H0"/>
    <trip id="3h40" depart="10905.00" from="K0K1" to="B4A4"/>
    <trip id="3h41" depart="10908.00" from="B2B1" to="B4A4"/>
    <trip id="3h42" depart="10909.00" from="K0K1" to="B1B0"/>
    <trip id="3h43" depart="10909.00" from="L4K4" to="K1L1"/>
    <trip id="3h44" depart="10910.00" from="C4B4" to="K1L1"/>
    <trip id="3h45" depart="10923.00" from="D11D10" to="K10K11"/>
    <trip id="3h46" depart="10928.00" from="A1B1" to="G3H3"/>
    <trip id="3h47" depart="10928.00" from="L4K4" to="K1L1"/>
    <trip id="3h48" depart="10929.00" from="A1B1" to="B4A4"/>
    <trip id="3h49" depart="10931.00" from="H10G10" to="B4A4"/>
    <trip id="3h50" depart="10932.00" from="L10K10" to="D4C4"/>
    <trip id="3h51" depart="10940.00" from="A1B1" to="K1L1"/>
    <trip id="3h52" depart="10945.00" from="H11H10" to="E10E11"/>
    <trip id="3h53" depart="10950.00" from="A1B1" to="I4H4"/>
    <trip id="3h54" depart="10954.00" from="L4K4" to="G5G6"/>
    <trip id="3h55" depart="10961.00" from="F10E10" to="K7L7"/>
    <trip id="3h56" depart="10962.00" from="L4K4" to="B1B0"/>
    <trip id="3h57" depart="10962.00" from="B8C8" to="B1B0"/>
    <trip id="3h58" depart="10969.00" from="H11H10" to="K7L7"/>
    <trip id="3h59" depart="10971.00" from="H11H10" to="B1B0"/>
    <trip id="3h60" depart="10975.00" from="J11J10" to="K10K11"/>
    <trip id="3h61" depart="10981.00" from="E0E1" to="K10K11"/>
    <trip id="3h62" depart="10983.00" from="A1B1" to="B4A4"/>
    <trip id="3h63" depart="10985.00" from="B11B10" to="B10A10"/>
    <trip id="3h64" depart="10985.00" from="H11H10" to="K10K11"/>
    <trip id="3h65" depart="10992.00" from="L4K4" to="K7L7"/>
    <trip id="3h66" depart="10997.00" from="L10K10" to="K7L7"/>
    <trip id="3h67" depart="10997.00" from="G5G6" to="E10E11"/>
    <trip id="3h68" depart="10998.00" from="H11H10" to="B10A10"/>
    <trip id="3h69" depart="10998.00" from="L10K10" to="K10J10"/>
    <trip id="3h70" depart="11001.00" from="A7B7" to="G2F2"/>
    <trip id="3h71" depart="11003.00" from="L4K4" to="B9B8"/>
    <trip id="3h72" depart="11005.00" from="B11B10" to="gneE2"/>
    <trip id="3h73" depart="11007.00" from="B6B5" to="E10E11"/>
    <trip id="3h74" depart="11008.00" from="D8E8" to="B10A10"/>
    <trip id="3h75" depart="11018.00" from="B11B10" to="G7H7"/>
    <trip id="3h76" depart="11019.00" from="A7B7" to="E10E11"/>
    <trip id="3h77" depart="11022.00" from="H11H10" to="B1B0"/>
    <trip id="3h78" depart="11027.00" from="A7B7" to="K1L1"/>
    <trip id="3h79" depart="11027.00" from="K0K1" to="B4A4"/>
    <trip id="3h80" depart="11035.00" from="K2K3" to="K10K11"/>
    <trip id="3h81" depart="11038.00" from="L4K4" to="B2A2"/>
    <trip id="3h82" depart="11039.00" from="F10F9" to="B1B0"/>
    <trip id="3h83" depart="11040.00" from="K0K1" to="K1L1"/>
    <trip id="3h84" depart="11041.00" from="I8I9" to="E10E11"/>
    <trip id="3h85" depart="11046.00" from="A1B1" to="B4A4"/>
    <trip id="3h86" depart="11046.00" from="A1B1" to="K1L1"/>
    <trip id="3h87" depart="11051.00" from="L10K10" to="B4A4"/>
    <trip id="3h88" depart="11055.00" from="B10B9" to="H1H0"/>
    <trip id="3h89" depart="11057.00" from="E0E1" to="B4A4"/>
    <trip id="3h90" depart="11057.00" from="J1K1" to="K1L1"/>
    <trip id="3h91" depart="11062.00" from="L10K10" to="C5D5"/>
    <trip id="3h92" depart="11063.00" from="E0E1" to="E10E11"/>
    <trip id="3h93" depart="11063.00" from="L10K10" to="K9J9"/>
    <trip id="3h94" depart="11064.00" from="A1B1" to="K7L7"/>
    <trip id="3h95" depart="11066.00" from="K0K1" to="B1B0"/>
    <trip id="3h96" depart="11066.00" from="H3H2" to="B4A4"/>
    <trip id="3h97" depart="11071.00" from="K0K1" to="K7L7"/>
    <trip id="3h98" depart="11072.00" from="L4K4" to="B1C1"/>
    <trip id="3h99" depart="11073.00" from="H11H10" to="K7L7"/>
    <trip id="3h100" depart="11076.00" from="H11H10" to="K7L7"/>
    <trip id="3h101" depart="11078.00" from="E0E1" to="K10K11"/>
    <trip id="3h102" depart="11081.00" from="L4K4" to="B1B0"/>
    <trip id="3h103" depart="11083.00" from="A7B7" to="B4A4"/>
    <trip id="3h104" depart="11092.00" from="B11B10" to="B1B0"/>
    <trip id="3h105" depart="11092.00" from="L4K4" to="C7D7"/>
    <trip id="3h106" depart="11092.00" from="L10K10" to="B4A4"/>
    <trip id="3h107" depart="11095.00" from="A7B7" to="K1L1"/>
    <trip id="3h108" depart="11096.00" from="E0E1" to="H1H0"/>
    <trip id="3h109" depart="11098.00" from="K5K6" to="K10K11"/>
    <trip id="3h110" depart="11098.00" from="L4K4" to="I6I7"/>
    <trip id="3h111" depart="11098.00" from="B11B10" to="K1L1"/>
    <trip id="3h112" depart="11103.00" from="K0K1" to="H1H0"/>
    <trip id="3h113" depart="11108.00" from="B11B10" to="K10K11"/>
    <trip id="3h114" depart="11109.00" from="A9B9" to="E10E11"/>
    <trip id="3h115" depart="11109.00" from="C3B3" to="K1L1"/>
    <trip id="3h116" depart="11113.00" from="L10K10" to="B4A4"/>
    <trip id="3h117" depart="11113.00" from="K0K1" to="E10E11"/>
    <trip id="3h118" depart="11116.00" from="G1G0" to="B4A4"/>
    <trip id="3h119" depart="11116.00" from="J9J10" to="K7L7"/>
    <trip id="3h120" depart="11118.00" from="B11B10" to="K1L1"/>
    <trip id="3h121" depart="11121.00" from="K0K1" to="K1L1"/>
    <trip id="3h122" depart="11127.00" from="A1B1" to="H1H0"/>
    <trip id="3h123" depart="11137.00" from="A7B7" to="J8I8"/>
    <trip id="3h124" depart="11138.00" from="L10K10" to="B1B0"/>
    <trip id="3h125" depart="11140.00" from="B11B10" to="H4G4"/>
    <trip id="3h126" depart="11146.00" from="J7K7" to="E10E11"/>
    <trip id="3h127" depart="11148.00" from="A1B1" to="J8K8"/>
    <trip id="3h128" depart="11151.00" from="K0K1" to="H1H0"/>
    <trip id="3h129" depart="11154.00" from="H11H10" to="H1H0"/>
    <trip id="3h130" depart="11158.00" from="B11B10" to="B4A4"/>
    <trip id="3h131" depart="11160.00" from="G6H6" to="B10A10"/>
    <trip id="3h132" depart="11168.00" from="A1B1" to="H1H0"/>
    <trip id="3h133" depart="11169.00" from="H11H10" to="B10A10"/>
    <trip id="3h134" depart="11169.00" from="K0K1" to="J4I4"/>
    <trip id="3h135" depart="11172.00" from="K7K8" to="G4F4"/>
    <trip id="3h136" depart="11176.00" from="J1J0" to="K10K11"/>
    <trip id="3h137" depart="11179.00" from="A1B1" to="B1B0"/>
    <trip id="3h138" depart="11180.00" from="E0E1" to="K9L9"/>
    <trip id="3h139" depart="11181.00" from="H11H10" to="H10H9"/>
    <trip id="3h140" depart="11181.00" from="B11B10" to="A3B3"/>
    <trip id="3h141" depart="11186.00" from="A7B7" to="B10A10"/>
    <trip id="3h142" depart="11186.00" from="L10K10" to="B4A4"/>
    <trip id="3h143" depart="11192.00" from="B11B10" to="H1H0"/>
    <trip id="3h144" depart="11197.00" from="A7B7" to="K1L1"/>
    <trip id="3h145" depart="11200.00" from="K0K1" to="J4I4"/>
    <trip id="3h146" depart="11201.00" from="E0E1" to="K10K11"/>
    <trip id="3h147" depart="11203.00" from="J5K5" to="K1L1"/>
    <trip id="3h148" depart="11205.00" from="L10K10" to="K1L1"/>
    <trip id="3h149" depart="11205.00" from="L4K4" to="K7L7"/>
    <trip id="3h150" depart="11205.00" from="E0E1" to="B4A4"/>
    <trip id="3h151" depart="11206.00" from="E0E1" to="E10E11"/>
    <trip id="3h152" depart="11208.00" from="A1B1" to="H1H0"/>
    <trip id="3h153" depart="11211.00" from="E3F3" to="K10K11"/>
    <trip id="3h154" depart="11214.00" from="A1B1" to="K1L1"/>
    <trip id="3h155" depart="11218.00" from="I2I3" to="E10E11"/>
    <trip id="3h156" depart="11218.00" from="L10K10" to="K1L1"/>
    <trip id="3h157" depart="11228.00" from="L10K10" to="K10K11"/>
    <trip id="3h158" depart="11229.00" from="D9D8" to="B1B0"/>
    <trip id="3h159" depart="11232.00" from="K3L3" to="E10E11"/>
    <trip id="3h160" depart="11236.00" from="B4B3" to="L8K8"/>
    <trip id="3h161" depart="11238.00" from="K0K1" to="B1B0"/>
    <trip id="3h162" depart="11238.00" from="B11B10" to="H1H0"/>
    <trip id="3h163" depart="11239.00" from="H11H10" to="J5K5"/>
    <trip id="3h164" depart="11240.00" from="E0E1" to="B4A4"/>
    <trip id="3h165" depart="11240.00" from="L10K10" to="I8I7"/>
    <trip id="3h166" depart="11241.00" from="B11B10" to="H1H0"/>
    <trip id="3h167" depart="11243.00" from="H11H10" to="B4A4"/>
    <trip id="3h168" depart="11250.00" from="K0K1" to="B10A10"/>
    <trip id="3h169" depart="11259.00" from="L10K10" to="B4A4"/>
    <trip id="3h170" depart="11261.00" from="L10K10" to="J7J6"/>
    <trip id="3h171" depart="11266.00" from="A1B1" to="H6H5"/>
    <trip id="3h172" depart="11267.00" from="B11B10" to="B4A4"/>
    <trip id="3h173" depart="11268.00" from="K0K1" to="D2C2"/>
    <trip id="3h174" depart="11268.00" from="A7B7" to="C6C7"/>
    <trip id="3h175" depart="11271.00" from="L4K4" to="H7H6"/>
    <trip id="3h176" depart="11271.00" from="E0E1" to="G1G2"/>
    <trip id="3h177" depart="11273.00" from="F4E4" to="G2G3"/>
    <trip id="3h178" depart="11274.00" from="L4K4" to="K10K11"/>
    <trip id="3h179" depart="11276.00" from="H5G5" to="G9H9"/>
    <trip id="3h180" depart="11281.00" from="F10E10" to="D7E7"/>
    <trip id="3h181" depart="11286.00" from="A7B7" to="B1B0"/>
    <trip id="3h182" depart="11288.00" from="L5K5" to="E10E11"/>
    <trip id="3h183" depart="11291.00" from="K0K1" to="F5G5"/>
    <trip id="3h184" depart="11296.00" from="L4K4" to="K10K11"/>
    <trip id="3h185" depart="11298.00" from="A7B7" to="B1B0"/>
    <trip id="3h186" depart="11302.00" from="L4K4" to="E10E11"/>
    <trip id="3h187" depart="11305.00" from="A1B1" to="B1B0"/>
    <trip id="3h188" depart="11305.00" from="A1B1" to="K7L7"/>
    <trip id="3h189" depart="11312.00" from="L4K4" to="K1L1"/>
    <trip id="3h190" depart="11313.00" from="E0E1" to="B1B0"/>
    <trip id="3h191" depart="11315.00" from="A1B1" to="K1L1"/>
    <trip id="3h192" depart="11317.00" from="A7B7" to="J11J10"/>
    <trip id="3h193" depart="11321.00" from="F5G5" to="B10A10"/>
    <trip id="3h194" depart="11322.00" from="A7B7" to="G2F2"/>
    <trip id="3h195" depart="11323.00" from="B11B10" to="B1B0"/>
    <trip id="3h196" depart="11332.00" from="L4K4" to="B10A10"/>
    <trip id="3h197" depart="11332.00" from="H11H10" to="F2E2"/>
    <trip id="3h198" depart="11333.00" from="K0K1" to="K7L7"/>
    <trip id="3h199" depart="11334.00" from="E10D10" to="K10K11"/>
    <trip id="3h200" depart="11335.00" from="E0E1" to="B4A4"/>
    <trip id="3h201" depart="11346.00" from="C10C11" to="D3D4"/>
    <trip id="3h202" depart="11347.00" from="K0K1" to="K7L7"/>
    <trip id="3h203" depart="11350.00" from="H11H10" to="E10E11"/>
    <trip id="3h204" depart="11355.00" from="A1B1" to="B4A4"/>
    <trip id="3h205" depart="11361.00" from="H11H10" to="E10E11"/>
    <trip id="3h206" depart="11364.00" from="L10K10" to="B4A4"/>
    <trip id="3h207" depart="11368.00" from="B11B10" to="B1B0"/>
    <trip id="3h208" depart="11378.00" from="E0E1" to="K7L7"/>
    <trip id="3h209" depart="11378.00" from="H11H10" to="K1L1"/>
    <trip id="3h210" depart="11381.00" from="A1B1" to="K1L1"/>
    <trip id="3h211" depart="11381.00" from="L4K4" to="D2C2"/>
    <trip id="3h212" depart="11382.00" from="C4C5" to="E3F3"/>
    <trip id="3h213" depart="11387.00" from="K0K1" to="K1L1"/>
    <trip id="3h214" depart="11391.00" from="A7B7" to="B1B0"/>
    <trip id="3h215" depart="11392.00" from="L10K10" to="B10A10"/>
    <trip id="3h216" depart="11397.00" from="L4K4" to="H1H0"/>
    <trip id="3h217" depart="11400.00" from="L10K10" to="K1L1"/>
    <trip id="3h218" depart="11401.00" from="A1B1" to="I4H4"/>
    <trip id="3h219" depart="11409.00" from="A7B7" to="C3D3"/>
    <trip id="3h220" depart="11414.00" from="B11B10" to="K10K11"/>
    <trip id="3h221" depart="11417.00" from="K0K1" to="K10K11"/>
    <trip id="3h222" depart="11419.00" from="L4K4" to="J1J2"/>
    <trip id="3h223" depart="11428.00" from="A7B7" to="B1B0"/>
    <trip id="3h224" depart="11430.00" from="A7B7" to="B10A10"/>
    <trip id="3h225" depart="11431.00" from="A7B7" to="B1B0"/>
    <trip id="3h226" depart="11432.00" from="H8I8" to="K10K11"/>
    <trip id="3h227" depart="11435.00" from="B11B10" to="B1B0"/>
    <trip id="3h228" depart="11438.00" from="L10K10" to="E10D10"/>
    <trip id="3h229" depart="11438.00" from="A1B1" to="E10E11"/>
    <trip id="3h230" depart="11445.00" from="A7B7" to="B10A10"/>
    <trip id="3h231" depart="11447.00" from="B11B10" to="H1H0"/>
    <trip id="3h232" depart="11449.00" from="C9B9" to="K10K11"/>
    <trip id="3h233" depart="11450.00" from="L10K10" to="H1H0"/>
    <trip id="3h234" depart="11457.00" from="A7B7" to="E10E11"/>
    <trip id="3h235" depart="11463.00" from="K9K10" to="B4A4"/>
    <trip id="3h236" depart="11464.00" from="E0E1" to="E10E11"/>
    <trip id="3h237" depart="11465.00" from="A1B1" to="E10E11"/>
    <trip id="3h238" depart="11469.00" from="E6D6" to="K1L1"/>
    <trip id="3h239" depart="11470.00" from="L4K4" to="F3G3"/>
    <trip id="3h240" depart="11473.00" from="K0K1" to="I6H6"/>
    <trip id="3h241" depart="11473.00" from="F10F9" to="K7L7"/>
    <trip id="3h242" depart="11474.00" from="L10K10" to="J9J10"/>
    <trip id="3h243" depart="11475.00" from="E4E5" to="K7L7"/>
    <trip id="3h244" depart="11475.00" from="B11B10" to="K7L7"/>
    <trip id="3h245" depart="11481.00" from="A7B7" to="B10A10"/>
    <trip id="3h246" depart="11481.00" from="K0K1" to="K7L7"/>
    <trip id="3h247" depart="11484.00" from="B8C8" to="K1L1"/>
    <trip id="3h248" depart="11485.00" from="E0E1" to="K1L1"/>
    <trip id="3h249" depart="11489.00" from="H11H10" to="K10K11"/>
    <trip id="3h250" depart="11491.00" from="B11B10" to="B4A4"/>
    <trip id="3h251" depart="11493.00" from="A7B7" to="B4A4"/>
    <trip id="3h252" depart="11493.00" from="A7B7" to="B1B0"/>
    <trip id="3h253" depart="11494.00" from="L10K10" to="K7L7"/>
    <trip id="3h254" depart="11494.00" from="K0K1" to="E10E11"/>
    <trip id="3h255" depart="11499.00" from="B11B10" to="B2B1"/>
    <trip id="3h256" depart="11503.00" from="B10B9" to="B1B0"/>
    <trip id="3h257" depart="11504.00" from="B1C1" to="K1L1"/>
    <trip id="3h258" depart="11507.00" from="L10K10" to="K1L1"/>
    <trip id="3h259" depart="11508.00" from="K8K9" to="K7L7"/>
    <trip id="3h260" depart="11510.00" from="K0K1" to="F6F7"/>
    <trip id="3h261" depart="11513.00" from="A7B7" to="B10A10"/>
    <trip id="3h262" depart="11518.00" from="A7B7" to="K7L7"/>
    <trip id="3h263" depart="11520.00" from="A7B7" to="B4A4"/>
    <trip id="3h264" depart="11520.00" from="K0K1" to="B4A4"/>
    <trip id="3h265" depart="11521.00" from="K10J10" to="K10K11"/>
    <trip id="3h266" depart="11529.00" from="L4K4" to="H1H0"/>
    <trip id="3h267" depart="11530.00" from="L10K10" to="C7D7"/>
    <trip id="3h268" depart="11532.00" from="L10K10" to="B10A10"/>
    <trip id="3h269" depart="11535.00" from="E0E1" to="K1L1"/>
    <trip id="3h270" depart="11536.00" from="G2G3" to="K10K11"/>
    <trip id="3h271" depart="11537.00" from="L4K4" to="E10E11"/>
    <trip id="3h272" depart="11539.00" from="L10K10" to="H9H8"/>
    <trip id="3h273" depart="11540.00" from="K0K1" to="I5I6"/>
    <trip id="3h274" depart="11543.00" from="A1B1" to="K10K11"/>
    <trip id="3h275" depart="11546.00" from="H11H10" to="L8K8"/>
    <trip id="3h276" depart="11547.00" from="H11H10" to="L5K5"/>
    <trip id="3h277" depart="11550.00" from="E0E1" to="B10A10"/>
    <trip id="3h278" depart="11558.00" from="A1B1" to="H1H0"/>
    <trip id="3h279" depart="11566.00" from="K0K1" to="H1H0"/>
    <trip id="3h280" depart="11567.00" from="B11B10" to="F6F7"/>
    <trip id="3h281" depart="11569.00" from="H11H10" to="H1H0"/>
    <trip id="3h282" depart="11571.00" from="H11H10" to="H1H0"/>
    <trip id="3h283" depart="11573.00" from="L4K4" to="G6F6"/>
    <trip id="3h284" depart="11574.00" from="B2A2" to="K7L7"/>
    <trip id="3h285" depart="11578.00" from="H11H10" to="B10A10"/>
    <trip id="3h286" depart="11579.00" from="E0E1" to="K7L7"/>
    <trip id="3h287" depart="11582.00" from="G9G10" to="B1B0"/>
    <trip id="3h288" depart="11591.00" from="E4E5" to="H2H1"/>
    <trip id="3h289" depart="11591.00" from="L4K4" to="B1B0"/>
    <trip id="3h290" depart="11594.00" from="E0E1" to="K10K11"/>
    <trip id="3h291" depart="11596.00" from="A7B7" to="G2G3"/>
    <trip id="3h292" depart="11599.00" from="gneE10" to="K7L7"/>
    <trip id="3h293" depart="11602.00" from="H11H10" to="K1L1"/>
    <trip id="3h294" depart="11607.00" from="H11H10" to="K10K11"/>
    <trip id="3h295" depart="11610.00" from="A7B7" to="K7L7"/>
    <trip id="3h296" depart="11611.00" from="D6C6" to="H1H0"/>
    <trip id="3h297" depart="11615.00" from="A7B7" to="B1B0"/>
    <trip id="3h298" depart="11617.00" from="L10K10" to="K10K11"/>
    <trip id="3h299" depart="11617.00" from="L4K4" to="K7L7"/>
    <trip id="3h300" depart="11620.00" from="E0E1" to="B1B0"/>
    <trip id="3h301" depart="11623.00" from="L4K4" to="B1B0"/>
    <trip id="3h302" depart="11627.00" from="gneE3" to="B10A10"/>
    <trip id="3h303" depart="11629.00" from="L4K4" to="E10E11"/>
    <trip id="3h304" depart="11630.00" from="E0E1" to="B10A10"/>
    <trip id="3h305" depart="11631.00" from="K0K1" to="G4F4"/>
    <trip id="3h306" depart="11631.00" from="L10K10" to="K10K11"/>
    <trip id="3h307" depart="11635.00" from="B11B10" to="H1H0"/>
    <trip id="3h308" depart="11635.00" from="B11B10" to="K7L7"/>
    <trip id="3h309" depart="11636.00" from="E0E1" to="B4A4"/>
    <trip id="3h310" depart="11643.00" from="L10K10" to="E10E11"/>
    <trip id="3h311" depart="11645.00" from="L10K10" to="B4A4"/>
    <trip id="3h312" depart="11647.00" from="A7B7" to="E8E9"/>
    <trip id="3h313" depart="11648.00" from="H11H10" to="E10E11"/>
    <trip id="3h314" depart="11651.00" from="K6L6" to="H1H0"/>
    <trip id="3h315" depart="11653.00" from="E0E1" to="K1L1"/>
    <trip id="3h316" depart="11655.00" from="L10K10" to="B10A10"/>
    <trip id="3h317" depart="11658.00" from="B11B10" to="E10E11"/>
    <trip id="3h318" depart="11660.00" from="E0E1" to="B4A4"/>
    <trip id="3h319" depart="11661.00" from="A7B7" to="E10E11"/>
    <trip id="3h320" depart="11664.00" from="K0K1" to="K7L7"/>
    <trip id="3h321" depart="11668.00" from="A1B1" to="K7L7"/>
    <trip id="3h322" depart="11668.00" from="A7B7" to="H1H0"/>
    <trip id="3h323" depart="11669.00" from="L4K4" to="gneE3"/>
    <trip id="3h324" depart="11669.00" from="A1B1" to="G8F8"/>
    <trip id="3h325" depart="11674.00" from="G8F8" to="H1H0"/>
    <trip id="3h326" depart="11674.00" from="A7B7" to="C3B3"/>
    <trip id="3h327" depart="11675.00" from="C6B6" to="E6D6"/>
    <trip id="3h328" depart="11679.00" from="I5J5" to="B10A10"/>
    <trip id="3h329" depart="11681.00" from="A1B1" to="B10A10"/>
    <trip id="3h330" depart="11686.00" from="B11B10" to="K1L1"/>
    <trip id="3h331" depart="11689.00" from="J4I4" to="E10E11"/>
    <trip id="3h332" depart="11692.00" from="B11B10" to="B10A10"/>
    <trip id="3h333" depart="11694.00" from="F10E10" to="C9B9"/>
    <trip id="3h334" depart="11697.00" from="D8C8" to="K10K11"/>
    <trip id="3h335" depart="11698.00" from="L4K4" to="K1L1"/>
    <trip id="3h336" depart="11703.00" from="A1B1" to="B4A4"/>
    <trip id="3h337" depart="11703.00" from="B11B10" to="D7D6"/>
    <trip id="3h338" depart="11708.00" from="H11H10" to="K7L7"/>
    <trip id="3h339" depart="11709.00" from="L10K10" to="K3K4"/>
    <trip id="3h340" depart="11712.00" from="F4F5" to="K10K11"/>
    <trip id="3h341" depart="11712.00" from="H11H10" to="B1B0"/>
    <trip id="3h342" depart="11716.00" from="E1F1" to="H1H0"/>
    <trip id="3h343" depart="11716.00" from="B2C2" to="I5J5"/>
    <trip id="3h344" depart="11729.00" from="D1D0" to="B4A4"/>
    <trip id="3h345" depart="11731.00" from="L4K4" to="K7L7"/>
    <trip id="3h346" depart="11732.00" from="G6H6" to="I8I9"/>
    <trip id="3h347" depart="11732.00" from="A1B1" to="K1K2"/>
    <trip id="3h348" depart="11735.00" from="K0K1" to="K1L1"/>
    <trip id="3h349" depart="11740.00" from="B11B10" to="E10E11"/>
    <trip id="3h350" depart="11742.00" from="H11H10" to="K7L7"/>
    <trip id="3h351" depart="11744.00" from="L10K10" to="K7L7"/>
    <trip id="3h352" depart="11748.00" from="K0K1" to="K1L1"/>
    <trip id="3h353" depart="11752.00" from="H11H10" to="K1L1"/>
    <trip id="3h354" depart="11753.00" from="K0K1" to="E10E11"/>
    <trip id="3h355" depart="11759.00" from="A7B7" to="B4A4"/>
    <trip id="3h356" depart="11759.00" from="E0E1" to="K10K11"/>
    <trip id="3h357" depart="11767.00" from="L4K4" to="K7L7"/>
    <trip id="3h358" depart="11767.00" from="L10K10" to="B10A10"/>
    <trip id="3h359" depart="11771.00" from="I10I11" to="B10A10"/>
    <trip id="3h360" depart="11772.00" from="A1B1" to="H1H0"/>
    <trip id="3h361" depart="11779.00" from="K0K1" to="K1L1"/>
    <trip id="3h362" depart="11781.00" from="A1B1" to="K7L7"/>
    <trip id="3h363" depart="11783.00" from="L10K10" to="H1H0"/>
    <trip id="3h364" depart="11784.00" from="B11B10" to="B2A2"/>
    <trip id="3h365" depart="11785.00" from="G1G0" to="E10E11"/>
    <trip id="3h366" depart="11788.00" from="K0K1" to="K10K11"/>
    <trip id="3h367" depart="11790.00" from="E0E1" to="B1B0"/>
    <trip id="3h368" depart="11793.00" from="E0E1" to="B1B0"/>
    <trip id="3h369" depart="11801.00" from="E0E1" to="E6E7"/>
    <trip id="3h370" depart="11802.00" from="E0E1" to="H1H0"/>
    <trip id="3h371" depart="11802.00" from="B7C7" to="B10A10"/>
    <trip id="3h372" depart="11803.00" from="B11B10" to="F2E2"/>
    <trip id="3h373" depart="11804.00" from="A1B1" to="K7L7"/>
    <trip id="3h374" depart="11806.00" from="L10K10" to="K1L1"/>
    <trip id="3h375" depart="11808.00" from="B11B10" to="D7D8"/>
    <trip id="3h376" depart="11813.00" from="L10K10" to="E10E11"/>
    <trip id="3h377" depart="11814.00" from="A7B7" to="J2I2"/>
    <trip id="3h378" depart="11815.00" from="K0K1" to="H8H7"/>
    <trip id="3h379" depart="11815.00" from="E0E1" to="C9D9"/>
    <trip id="3h380" depart="11816.00" from="L10K10" to="E1E2"/>
    <trip id="3h381" depart="11818.00" from="G8G9" to="K7L7"/>
    <trip id="3h382" depart="11819.00" from="A7B7" to="K7L7"/>
    <trip id="3h383" depart="11825.00" from="L4K4" to="E10E11"/>
    <trip id="3h384" depart="11826.00" from="C1D1" to="H1H0"/>
    <trip id="3h385" depart="11830.00" from="C4B4" to="I1J1"/>
    <trip id="3h386" depart="11831.00" from="K0K1" to="B4A4"/>
    <trip id="3h387" depart="11833.00" from="L4K4" to="B4A4"/>
    <trip id="3h388" depart="11836.00" from="E0E1" to="B1B0"/>
    <trip id="3h389" depart="11836.00" from="C4B4" to="B10A10"/>
    <trip id="3h390" depart="11837.00" from="D2C2" to="D5D4"/>
    <trip id="3h391" depart="11838.00" from="L10K10" to="K7L7"/>
    <trip id="3h392" depart="11839.00" from="H5I5" to="B1B0"/>
    <trip id="3h393" depart="11840.00" from="L4K4" to="H1H0"/>
    <trip id="3h394" depart="11849.00" from="A1B1" to="K10K11"/>
    <trip id="3h395" depart="11850.00" from="F3F2" to="K10K11"/>
    <trip id="3h396" depart="11855.00" from="B11B10" to="B4A4"/>
    <trip id="3h397" depart="11857.00" from="L4K4" to="D2E2"/>
    <trip id="3h398" depart="11861.00" from="H11H10" to="H1H0"/>
    <trip id="3h399" depart="11864.00" from="K0K1" to="H1H0"/>
    <trip id="3h400" depart="11871.00" from="K0K1" to="B4A4"/>
    <trip id="3h401" depart="11876.00" from="K10J10" to="B10A10"/>
    <trip id="3h402" depart="11878.00" from="A7B7" to="E10E11"/>
    <trip id="3h403" depart="11878.00" from="E0E1" to="B10A10"/>
    <trip id="3h404" depart="11882.00" from="H11H10" to="B10A10"/>
    <trip id="3h405" depart="11882.00" from="B11B10" to="E10E11"/>
    <trip id="3h406" depart="11883.00" from="H11H10" to="K1L1"/>
    <trip id="3h407" depart="11888.00" from="L10K10" to="E10E11"/>
    <trip id="3h408" depart="11893.00" from="L10K10" to="K7L7"/>
    <trip id="3h409" depart="11894.00" from="L4K4" to="B10A10"/>
    <trip id="3h410" depart="11898.00" from="L4K4" to="E10E11"/>
    <trip id="3h411" depart="11899.00" from="L10K10" to="B1B0"/>
    <trip id="3h412" depart="11904.00" from="K0K1" to="D8E8"/>
    <trip id="3h413" depart="11907.00" from="B11B10" to="H1H0"/>
    <trip id="3h414" depart="11910.00" from="A7B7" to="B8A8"/>
    <trip id="3h415" depart="11918.00" from="H11H10" to="B10A10"/>
    <trip id="3h416" depart="11927.00" from="B11B10" to="B10A10"/>
    <trip id="3h417" depart="11934.00" from="H11H10" to="K10K11"/>
    <trip id="3h418" depart="11938.00" from="H11H10" to="K8K9"/>
    <trip id="3h419" depart="11939.00" from="E0E1" to="B10A10"/>
    <trip id="3h420" depart="11941.00" from="A1B1" to="H1H0"/>
    <trip id="3h421" depart="11946.00" from="A7B7" to="H1H0"/>
    <trip id="3h422" depart="11950.00" from="L4K4" to="B4A4"/>
    <trip id="3h423" depart="11950.00" from="B11B10" to="K1L1"/>
    <trip id="3h424" depart="11964.00" from="L10K10" to="B1B0"/>
    <trip id="3h425" depart="11971.00" from="L10K10" to="B10A10"/>
    <trip id="3h426" depart="11975.00" from="K0K1" to="K1L1"/>
    <trip id="3h427" depart="11977.00" from="L4K4" to="E10E11"/>
    <trip id="3h428" depart="11980.00" from="E0E1" to="K7L7"/>
    <trip id="3h429" depart="11980.00" from="J9J10" to="K10K11"/>
    <trip id="3h430" depart="11983.00" from="A1B1" to="K1L1"/>
    <trip id="3h431" depart="11985.00" from="L10K10" to="B4A4"/>
    <trip id="3h432" depart="11986.00" from="A7B7" to="B1B0"/>
    <trip id="3h433" depart="11989.00" from="K0K1" to="B10A10"/>
    <trip id="3h434" depart="11992.00" from="A7B7" to="C10B10"/>
    <trip id="3h435" depart="11993.00" from="L10K10" to="J4I4"/>
    <trip id="3h436" depart="11994.00" from="E0E1" to="B4A4"/>
    <trip id="3h437" depart="11996.00" from="B5C5" to="B1B0"/>
    <trip id="3h438" depart="11999.00" from="G8F8" to="B10A10"/>
    <trip id="3h439" depart="12003.00" from="B11B10" to="B1B0"/>
    <trip id="3h440" depart="12003.00" from="I9J9" to="K10K11"/>
    <trip id="3h441" depart="12006.00" from="B11B10" to="H1H0"/>
    <trip id="3h442" depart="12011.00" from="K0K1" to="F9F8"/>
    <trip id="3h443" depart="12011.00" from="H11H10" to="B4A4"/>
    <trip id="3h444" depart="12011.00" from="K0K1" to="H1H0"/>
    <trip id="3h445" depart="12013.00" from="H11H10" to="I9H9"/>
    <trip id="3h446" depart="12017.00" from="A1B1" to="B10A10"/>
    <trip id="3h447" depart="12017.00" from="B11B10" to="A3B3"/>
    <trip id="3h448" depart="12019.00" from="A7B7" to="B1B0"/>
    <trip id="3h449" depart="12020.00" from="H11H10" to="B10A10"/>
    <trip id="3h450" depart="12021.00" from="E0E1" to="E6E7"/>
    <trip id="3h451" depart="12021.00" from="L4K4" to="J1K1"/>
    <trip id="3h452" depart="12031.00" from="L10K10" to="G5G4"/>
    <trip id="3h453" depart="12032.00" from="A1B1" to="B1B0"/>
    <trip id="3h454" depart="12034.00" from="C1D1" to="B10A10"/>
    <trip id="3h455" depart="12035.00" from="A1B1" to="F6F5"/>
    <trip id="3h456" depart="12036.00" from="B7B6" to="K1L1"/>
    <trip id="3h457" depart="12036.00" from="A7B7" to="K1L1"/>
    <trip id="3h458" depart="12039.00" from="K3K4" to="K1L1"/>
    <trip id="3h459" depart="12041.00" from="H11H10" to="K10K11"/>