<?xml version="1.0" encoding="UTF-8"?>
<!-- generated on 2020-12-09 03:20:42.902713 by randomTrips.py v1_7_0+0000-714814baed
  options: -n .\data/grid01-bcn_50.net.xml <doubleminus>prefix=4h <doubleminus>fringe-factor 100 -b 14400 -e 18000 -p1.1076923076923078 <doubleminus>binomial 10 -odata/random/random_h_4-bcn_50.trips.rou.xml <doubleminus>edge-permission=passenger
-->
<routes xmlns:xsi="http://www.w3.org/2001/XMLSchema-instance" xsi:noNamespaceSchemaLocation="http://sumo.dlr.de/xsd/routes_file.xsd">
    <trip id="4h0" depart="14400.00" from="B11B10" to="B4A4"/>
    <trip id="4h1" depart="14400.00" from="E0E1" to="B10A10"/>
    <trip id="4h2" depart="14400.00" from="A9B9" to="I8I9"/>
    <trip id="4h3" depart="14401.00" from="L10K10" to="K10K11"/>
    <trip id="4h4" depart="14403.00" from="B11B10" to="B4A4"/>
    <trip id="4h5" depart="14403.00" from="B11B10" to="B10A10"/>
    <trip id="4h6" depart="14405.00" from="C0C1" to="B4A4"/>
    <trip id="4h7" depart="14407.00" from="A7B7" to="H7I7"/>
    <trip id="4h8" depart="14407.00" from="E0E1" to="gneE6"/>
    <trip id="4h9" depart="14408.00" from="K0K1" to="K10K11"/>
    <trip id="4h10" depart="14410.00" from="C4B4" to="B10A10"/>
    <trip id="4h11" depart="14410.00" from="L10K10" to="K7L7"/>
    <trip id="4h12" depart="14411.00" from="F5E5" to="B10A10"/>
    <trip id="4h13" depart="14413.00" from="H9H8" to="B4A4"/>
    <trip id="4h14" depart="14413.00" from="B11B10" to="J7K7"/>
    <trip id="4h15" depart="14416.00" from="gneE9" to="K1L1"/>
    <trip id="4h16" depart="14417.00" from="E0E1" to="L2K2"/>
    <trip id="4h17" depart="14419.00" from="H11H10" to="G3H3"/>
    <trip id="4h18" depart="14419.00" from="A7B7" to="H1H0"/>
    <trip id="4h19" depart="14421.00" from="E2E3" to="gneE8"/>
    <trip id="4h20" depart="14421.00" from="B11B10" to="B4A4"/>
    <trip id="4h21" depart="14422.00" from="L10K10" to="B4A4"/>
    <trip id="4h22" depart="14424.00" from="K0K1" to="I2I1"/>
    <trip id="4h23" depart="14425.00" from="A1B1" to="K7L7"/>
    <trip id="4h24" depart="14427.00" from="K0K1" to="C8C7"/>
    <trip id="4h25" depart="14429.00" from="A7B7" to="C5D5"/>
    <trip id="4h26" depart="14431.00" from="L4K4" to="H1H0"/>
    <trip id="4h27" depart="14432.00" from="J5K5" to="C6C7"/>
    <trip id="4h28" depart="14433.00" from="B11B10" to="E10E11"/>
    <trip id="4h29" depart="14434.00" from="H10G10" to="I10H10"/>
    <trip id="4h30" depart="14435.00" from="B11B10" to="F10E10"/>
    <trip id="4h31" depart="14435.00" from="E0E1" to="H8H7"/>
    <trip id="4h32" depart="14436.00" from="K0K1" to="K10K11"/>
    <trip id="4h33" depart="14436.00" from="B11B10" to="K1L1"/>
    <trip id="4h34" depart="14439.00" from="B11B10" to="B4A4"/>
    <trip id="4h35" depart="14439.00" from="E0E1" to="H1H0"/>
    <trip id="4h36" depart="14440.00" from="D7E7" to="K10K11"/>
    <trip id="4h37" depart="14441.00" from="D10C10" to="K10K11"/>
    <trip id="4h38" depart="14442.00" from="E0E1" to="H1H0"/>
    <trip id="4h39" depart="14442.00" from="I4I5" to="B1B0"/>
    <trip id="4h40" depart="14442.00" from="E0E1" to="B4A4"/>
    <trip id="4h41" depart="14443.00" from="A1B1" to="H1H0"/>
    <trip id="4h42" depart="14444.00" from="A7B7" to="B1B0"/>
    <trip id="4h43" depart="14445.00" from="B8A8" to="K10K11"/>
    <trip id="4h44" depart="14446.00" from="K0K1" to="H7I7"/>
    <trip id="4h45" depart="14449.00" from="L10K10" to="B4A4"/>
    <trip id="4h46" depart="14449.00" from="L10K10" to="B1B0"/>
    <trip id="4h47" depart="14450.00" from="L4K4" to="B10A10"/>
    <trip id="4h48" depart="14454.00" from="H11H10" to="B4A4"/>
    <trip id="4h49" depart="14455.00" from="L4K4" to="F1G1"/>
    <trip id="4h50" depart="14455.00" from="H8H7" to="B10A10"/>
    <trip id="4h51" depart="14458.00" from="A1B1" to="E10E11"/>
    <trip id="4h52" depart="14459.00" from="A7B7" to="B5C5"/>
    <trip id="4h53" depart="14460.00" from="A1B1" to="E10E11"/>
    <trip id="4h54" depart="14462.00" from="K0K1" to="E9D9"/>
    <trip id="4h55" depart="14470.00" from="K0K1" to="K10K11"/>
    <trip id="4h56" depart="14471.00" from="G3H3" to="H1H0"/>
    <trip id="4h57" depart="14473.00" from="A1B1" to="H9H8"/>
    <trip id="4h58" depart="14474.00" from="L10K10" to="B4A4"/>
    <trip id="4h59" depart="14475.00" from="L10K10" to="H3H2"/>
    <trip id="4h60" depart="14476.00" from="L10K10" to="K7L7"/>
    <trip id="4h61" depart="14478.00" from="H11H10" to="G1G0"/>
    <trip id="4h62" depart="14480.00" from="B11B10" to="K10K11"/>
    <trip id="4h63" depart="14483.00" from="H11H10" to="E10E11"/>
    <trip id="4h64" depart="14483.00" from="L10K10" to="H1H0"/>
    <trip id="4h65" depart="14484.00" from="L10K10" to="K7L7"/>
    <trip id="4h66" depart="14486.00" from="E0E1" to="E10E11"/>
    <trip id="4h67" depart="14487.00" from="K9K10" to="B4A4"/>
    <trip id="4h68" depart="14488.00" from="K0K1" to="B4A4"/>
    <trip id="4h69" depart="14488.00" from="L10K10" to="B1B0"/>
    <trip id="4h70" depart="14489.00" from="A1B1" to="K1L1"/>
    <trip id="4h71" depart="14489.00" from="K0K1" to="H1H0"/>
    <trip id="4h72" depart="14490.00" from="K6L6" to="K1L1"/>
    <trip id="4h73" depart="14490.00" from="F2E2" to="E10E11"/>
    <trip id="4h74" depart="14491.00" from="A1B1" to="H1H0"/>
    <trip id="4h75" depart="14491.00" from="B11B10" to="I10H10"/>
    <trip id="4h76" depart="14493.00" from="L10K10" to="B10A10"/>
    <trip id="4h77" depart="14497.00" from="L4K4" to="K1L1"/>
    <trip id="4h78" depart="14497.00" from="L10K10" to="H1H0"/>
    <trip id="4h79" depart="14498.00" from="K0K1" to="B4A4"/>
    <trip id="4h80" depart="14498.00" from="A1B1" to="B1B0"/>
    <trip id="4h81" depart="14500.00" from="E0E1" to="H1H0"/>
    <trip id="4h82" depart="14500.00" from="B2B1" to="B4A4"/>
    <trip id="4h83" depart="14500.00" from="K0K1" to="B1B0"/>
    <trip id="4h84" depart="14501.00" from="L10K10" to="B10A10"/>
    <trip id="4h85" depart="14501.00" from="L4K4" to="K1L1"/>
    <trip id="4h86" depart="14502.00" from="C4B4" to="K1L1"/>
    <trip id="4h87" depart="14502.00" from="L10K10" to="B4A4"/>
    <trip id="4h88" depart="14506.00" from="E0E1" to="B4A4"/>
    <trip id="4h89" depart="14506.00" from="G6H6" to="B7C7"/>
    <trip id="4h90" depart="14506.00" from="L10K10" to="B10A10"/>
    <trip id="4h91" depart="14507.00" from="A7B7" to="K7L7"/>
    <trip id="4h92" depart="14509.00" from="A1B1" to="K10K11"/>
    <trip id="4h93" depart="14513.00" from="L10K10" to="B10A10"/>
    <trip id="4h94" depart="14513.00" from="D11D10" to="K10K11"/>
    <trip id="4h95" depart="14518.00" from="A1B1" to="G3H3"/>
    <trip id="4h96" depart="14518.00" from="L4K4" to="K1L1"/>
    <trip id="4h97" depart="14519.00" from="A1B1" to="B4A4"/>
    <trip id="4h98" depart="14520.00" from="E0E1" to="K1L1"/>
    <trip id="4h99" depart="14521.00" from="H10G10" to="B4A4"/>
    <trip id="4h100" depart="14521.00" from="L4K4" to="B10A10"/>
    <trip id="4h101" depart="14522.00" from="L10K10" to="D4C4"/>
    <trip id="4h102" depart="14523.00" from="H11H10" to="K1L1"/>
    <trip id="4h103" depart="14524.00" from="K3K4" to="E2E3"/>
    <trip id="4h104" depart="14524.00" from="A9B9" to="B10A10"/>
    <trip id="4h105" depart="14526.00" from="H11H10" to="K1L1"/>
    <trip id="4h106" depart="14527.00" from="J3J4" to="B5B4"/>
    <trip id="4h107" depart="14527.00" from="L10K10" to="D8C8"/>
    <trip id="4h108" depart="14528.00" from="I2I1" to="E10E11"/>
    <trip id="4h109" depart="14528.00" from="A1B1" to="K1L1"/>
    <trip id="4h110" depart="14531.00" from="K0K1" to="K1L1"/>
    <trip id="4h111" depart="14532.00" from="H11H10" to="K7L7"/>
    <trip id="4h112" depart="14533.00" from="H11H10" to="E10E11"/>
    <trip id="4h113" depart="14533.00" from="B7B6" to="gneE9"/>
    <trip id="4h114" depart="14534.00" from="L4K4" to="I4I3"/>
    <trip id="4h115" depart="14535.00" from="A7B7" to="B1B0"/>
    <trip id="4h116" depart="14537.00" from="A1B1" to="I4H4"/>
    <trip id="4h117" depart="14539.00" from="A1B1" to="E10E11"/>
    <trip id="4h118" depart="14542.00" from="L4K4" to="G5G6"/>
    <trip id="4h119" depart="14542.00" from="G10F10" to="K7K8"/>
    <trip id="4h120" depart="14543.00" from="G5G4" to="K10K11"/>
    <trip id="4h121" depart="14545.00" from="A7B7" to="C8C9"/>
    <trip id="4h122" depart="14547.00" from="F10E10" to="K7L7"/>
    <trip id="4h123" depart="14548.00" from="L4K4" to="B1B0"/>
    <trip id="4h124" depart="14549.00" from="B8C8" to="B1B0"/>
    <trip id="4h125" depart="14549.00" from="A7B7" to="B4A4"/>
    <trip id="4h126" depart="14555.00" from="E0E1" to="K10K11"/>
    <trip id="4h127" depart="14555.00" from="H11H10" to="K7L7"/>
    <trip id="4h128" depart="14556.00" from="H11H10" to="H1H0"/>
    <trip id="4h129" depart="14557.00" from="H11H10" to="B1B0"/>
    <trip id="4h130" depart="14560.00" from="J7K7" to="B1B0"/>
    <trip id="4h131" depart="14561.00" from="J11J10" to="K10K11"/>
    <trip id="4h132" depart="14561.00" from="A7B7" to="B5B4"/>
    <trip id="4h133" depart="14563.00" from="E0E1" to="K10K11"/>
    <trip id="4h134" depart="14563.00" from="H11H10" to="B10A10"/>
    <trip id="4h135" depart="14565.00" from="E4D4" to="K1L1"/>
    <trip id="4h136" depart="14566.00" from="D4C4" to="B10A10"/>
    <trip id="4h137" depart="14566.00" from="L4K4" to="B10A10"/>
    <trip id="4h138" depart="14568.00" from="A1B1" to="B4A4"/>
    <trip id="4h139" depart="14570.00" from="B11B10" to="B10A10"/>
    <trip id="4h140" depart="14570.00" from="H11H10" to="K10K11"/>
    <trip id="4h141" depart="14570.00" from="K0K1" to="E10E11"/>
    <trip id="4h142" depart="14570.00" from="G4F4" to="B4A4"/>
    <trip id="4h143" depart="14571.00" from="L4K4" to="K6J6"/>
    <trip id="4h144" depart="14576.00" from="L4K4" to="K7L7"/>
    <trip id="4h145" depart="14581.00" from="A1B1" to="K1L1"/>
    <trip id="4h146" depart="14582.00" from="G5G6" to="E10E11"/>
    <trip id="4h147" depart="14582.00" from="H11H10" to="B10A10"/>
    <trip id="4h148" depart="14583.00" from="L10K10" to="K10J10"/>
    <trip id="4h149" depart="14585.00" from="A1B1" to="B1B0"/>
    <trip id="4h150" depart="14586.00" from="B11B10" to="K1L1"/>
    <trip id="4h151" depart="14586.00" from="A1B1" to="K7L7"/>
    <trip id="4h152" depart="14586.00" from="L4K4" to="B9B8"/>
    <trip id="4h153" depart="14587.00" from="A7B7" to="B4A4"/>
    <trip id="4h154" depart="14588.00" from="E0E1" to="K1L1"/>
    <trip id="4h155" depart="14589.00" from="B11B10" to="gneE2"/>
    <trip id="4h156" depart="14589.00" from="H2I2" to="K1L1"/>
    <trip id="4h157" depart="14590.00" from="A7B7" to="K10K11"/>
    <trip id="4h158" depart="14590.00" from="B6B5" to="E10E11"/>
    <trip id="4h159" depart="14591.00" from="D8E8" to="B10A10"/>
    <trip id="4h160" depart="14591.00" from="L4K4" to="K7L7"/>
    <trip id="4h161" depart="14592.00" from="E0E1" to="E10E11"/>
    <trip id="4h162" depart="14592.00" from="B11B10" to="B4A4"/>
    <trip id="4h163" depart="14597.00" from="gneE10" to="F2E2"/>
    <trip id="4h164" depart="14599.00" from="K0K1" to="J2I2"/>
    <trip id="4h165" depart="14599.00" from="L4K4" to="K10K11"/>
    <trip id="4h166" depart="14599.00" from="B11B10" to="G7H7"/>
    <trip id="4h167" depart="14600.00" from="A7B7" to="E10E11"/>
    <trip id="4h168" depart="14603.00" from="H11H10" to="B1B0"/>
    <trip id="4h169" depart="14604.00" from="A7B7" to="K1L1"/>
    <trip id="4h170" depart="14606.00" from="A7B7" to="B1B0"/>
    <trip id="4h171" depart="14608.00" from="E0E1" to="B10A10"/>
    <trip id="4h172" depart="14609.00" from="A1B1" to="K10K11"/>
    <trip id="4h173" depart="14610.00" from="K0K1" to="H1H0"/>
    <trip id="4h174" depart="14613.00" from="D7D8" to="B4A4"/>
    <trip id="4h175" depart="14616.00" from="K2K3" to="K10K11"/>
    <trip id="4h176" depart="14617.00" from="H11H10" to="B4A4"/>
    <trip id="4h177" depart="14618.00" from="A6B6" to="K1L1"/>
    <trip id="4h178" depart="14618.00" from="L4K4" to="B2A2"/>
    <trip id="4h179" depart="14620.00" from="F10F9" to="B1B0"/>
    <trip id="4h180" depart="14620.00" from="K0K1" to="K1L1"/>
    <trip id="4h181" depart="14621.00" from="E0E1" to="K10K11"/>
    <trip id="4h182" depart="14622.00" from="I8I9" to="E10E11"/>
    <trip id="4h183" depart="14623.00" from="A7B7" to="K10K11"/>
    <trip id="4h184" depart="14623.00" from="H11H10" to="H1H0"/>
    <trip id="4h185" depart="14624.00" from="L4K4" to="K7L7"/>
    <trip id="4h186" depart="14626.00" from="A1B1" to="B4A4"/>
    <trip id="4h187" depart="14626.00" from="A1B1" to="K1L1"/>
    <trip id="4h188" depart="14627.00" from="H11H10" to="H1I1"/>
    <trip id="4h189" depart="14628.00" from="K0K1" to="K10K11"/>
    <trip id="4h190" depart="14628.00" from="A1B1" to="E10E11"/>
    <trip id="4h191" depart="14630.00" from="L10K10" to="B4A4"/>
    <trip id="4h192" depart="14630.00" from="K0K1" to="H1H0"/>
    <trip id="4h193" depart="14630.00" from="E10D10" to="E10E11"/>
    <trip id="4h194" depart="14631.00" from="L10K10" to="B4A4"/>
    <trip id="4h195" depart="14633.00" from="E0E1" to="G3H3"/>
    <trip id="4h196" depart="14633.00" from="E6D6" to="B4A4"/>
    <trip id="4h197" depart="14634.00" from="B10B9" to="H1H0"/>
    <trip id="4h198" depart="14635.00" from="E0E1" to="B4A4"/>
    <trip id="4h199" depart="14635.00" from="J1K1" to="K1L1"/>
    <trip id="4h200" depart="14636.00" from="gneE6" to="K10K11"/>
    <trip id="4h201" depart="14637.00" from="A1B1" to="B1B0"/>
    <trip id="4h202" depart="14637.00" from="H11H10" to="E10E11"/>
    <trip id="4h203" depart="14638.00" from="B11B10" to="K1L1"/>
    <trip id="4h204" depart="14639.00" from="L10K10" to="C5D5"/>
    <trip id="4h205" depart="14640.00" from="E0E1" to="E10E11"/>
    <trip id="4h206" depart="14641.00" from="L10K10" to="K9J9"/>
    <trip id="4h207" depart="14642.00" from="A1B1" to="K7L7"/>
    <trip id="4h208" depart="14642.00" from="E3F3" to="B1B0"/>
    <trip id="4h209" depart="14643.00" from="K0K1" to="B1B0"/>
    <trip id="4h210" depart="14643.00" from="H3H2" to="B4A4"/>
    <trip id="4h211" depart="14644.00" from="B11B10" to="B1B0"/>
    <trip id="4h212" depart="14646.00" from="gneE11" to="H1H0"/>
    <trip id="4h213" depart="14647.00" from="gneE6" to="B4A4"/>
    <trip id="4h214" depart="14648.00" from="K0K1" to="K7L7"/>
    <trip id="4h215" depart="14649.00" from="B11B10" to="B4A4"/>
    <trip id="4h216" depart="14649.00" from="L4K4" to="B1C1"/>
    <trip id="4h217" depart="14649.00" from="H11H10" to="K7L7"/>
    <trip id="4h218" depart="14653.00" from="H11H10" to="K7L7"/>
    <trip id="4h219" depart="14654.00" from="K0K1" to="I3H3"/>
    <trip id="4h220" depart="14654.00" from="B11B10" to="B1B0"/>
    <trip id="4h221" depart="14654.00" from="E0E1" to="K10K11"/>
    <trip id="4h222" depart="14656.00" from="L10K10" to="B4A4"/>
    <trip id="4h223" depart="14656.00" from="A7B7" to="E10E11"/>
    <trip id="4h224" depart="14657.00" from="L4K4" to="B1B0"/>
    <trip id="4h225" depart="14658.00" from="H11H10" to="K1L1"/>
    <trip id="4h226" depart="14659.00" from="A7B7" to="B4A4"/>
    <trip id="4h227" depart="14659.00" from="L10K10" to="B6B5"/>
    <trip id="4h228" depart="14660.00" from="K0K1" to="J7J8"/>
    <trip id="4h229" depart="14660.00" from="D3D4" to="H1H0"/>
    <trip id="4h230" depart="14661.00" from="L4K4" to="K10K11"/>
    <trip id="4h231" depart="14664.00" from="E0E1" to="E10E11"/>
    <trip id="4h232" depart="14666.00" from="B11B10" to="B1B0"/>
    <trip id="4h233" depart="14666.00" from="L4K4" to="C7D7"/>
    <trip id="4h234" depart="14667.00" from="L10K10" to="B4A4"/>
    <trip id="4h235" depart="14670.00" from="A7B7" to="K1L1"/>
    <trip id="4h236" depart="14671.00" from="E0E1" to="H1H0"/>
    <trip id="4h237" depart="14673.00" from="K5K6" to="K10K11"/>
    <trip id="4h238" depart="14673.00" from="L4K4" to="I6I7"/>
    <trip id="4h239" depart="14673.00" from="B11B10" to="K1L1"/>
    <trip id="4h240" depart="14675.00" from="gneE0" to="I3J3"/>
    <trip id="4h241" depart="14677.00" from="K0K1" to="H1H0"/>
    <trip id="4h242" depart="14679.00" from="D9D10" to="K10K11"/>
    <trip id="4h243" depart="14680.00" from="L4K4" to="G2G3"/>
    <trip id="4h244" depart="14681.00" from="L10K10" to="B1B0"/>
    <trip id="4h245" depart="14682.00" from="B11B10" to="K10K11"/>
    <trip id="4h246" depart="14682.00" from="H11H10" to="I10H10"/>
    <trip id="4h247" depart="14683.00" from="A9B9" to="E10E11"/>
    <trip id="4h248" depart="14683.00" from="C3B3" to="K1L1"/>
    <trip id="4h249" depart="14686.00" from="L10K10" to="B4A4"/>
    <trip id="4h250" depart="14686.00" from="gneE4" to="J4I4"/>
    <trip id="4h251" depart="14687.00" from="K0K1" to="E10E11"/>
    <trip id="4h252" depart="14689.00" from="G1G0" to="B4A4"/>
    <trip id="4h253" depart="14690.00" from="J9J10" to="K7L7"/>
    <trip id="4h254" depart="14690.00" from="G8F8" to="K10K11"/>
    <trip id="4h255" depart="14691.00" from="B11B10" to="K1L1"/>
    <trip id="4h256" depart="14691.00" from="L10K10" to="J5J4"/>
    <trip id="4h257" depart="14693.00" from="L4K4" to="B1B0"/>
    <trip id="4h258" depart="14694.00" from="K0K1" to="K1L1"/>
    <trip id="4h259" depart="14695.00" from="B11B10" to="B9B8"/>
    <trip id="4h260" depart="14697.00" from="I4I5" to="B1B0"/>
    <trip id="4h261" depart="14697.00" from="F8F7" to="B4A4"/>
    <trip id="4h262" depart="14697.00" from="B11B10" to="I4I5"/>
    <trip id="4h263" depart="14699.00" from="A1B1" to="H1H0"/>
    <trip id="4h264" depart="14699.00" from="B11B10" to="E10E11"/>
    <trip id="4h265" depart="14701.00" from="A7B7" to="B1B0"/>
    <trip id="4h266" depart="14703.00" from="L4K4" to="K1L1"/>
    <trip id="4h267" depart="14709.00" from="A7B7" to="J8I8"/>
    <trip id="4h268" depart="14710.00" from="L10K10" to="B1B0"/>
    <trip id="4h269" depart="14711.00" from="B11B10" to="H4G4"/>
    <trip id="4h270" depart="14714.00" from="L4K4" to="H1I1"/>
    <trip id="4h271" depart="14715.00" from="G5G6" to="E10E11"/>
    <trip id="4h272" depart="14716.00" from="J7K7" to="E10E11"/>
    <trip id="4h273" depart="14718.00" from="L4K4" to="B1B0"/>
    <trip id="4h274" depart="14719.00" from="A1B1" to="J8K8"/>
    <trip id="4h275" depart="14720.00" from="A1B1" to="K1L1"/>
    <trip id="4h276" depart="14721.00" from="K0K1" to="H1H0"/>
    <trip id="4h277" depart="14722.00" from="L4K4" to="B1B0"/>
    <trip id="4h278" depart="14722.00" from="K0K1" to="E10E11"/>
    <trip id="4h279" depart="14724.00" from="H11H10" to="H1H0"/>
    <trip id="4h280" depart="14726.00" from="A1B1" to="K10K11"/>
    <trip id="4h281" depart="14728.00" from="B11B10" to="B4A4"/>
    <trip id="4h282" depart="14730.00" from="A1B1" to="B10A10"/>
    <trip id="4h283" depart="14730.00" from="H11H10" to="E10E11"/>
    <trip id="4h284" depart="14733.00" from="E0E1" to="B10A10"/>
    <trip id="4h285" depart="14734.00" from="L4K4" to="C4B4"/>
    <trip id="4h286" depart="14736.00" from="I4I5" to="B4A4"/>
    <trip id="4h287" depart="14737.00" from="A1B1" to="H1H0"/>
    <trip id="4h288" depart="14738.00" from="H11H10" to="B10A10"/>
    <trip id="4h289" depart="14738.00" from="K0K1" to="J4I4"/>
    <trip id="4h290" depart="14739.00" from="E0E1" to="gneE2"/>
    <trip id="4h291" depart="14741.00" from="K7K8" to="G4F4"/>
    <trip id="4h292" depart="14742.00" from="H11H10" to="B4A4"/>
    <trip id="4h293" depart="14744.00" from="J1J0" to="K10K11"/>
    <trip id="4h294" depart="14748.00" from="A1B1" to="B1B0"/>
    <trip id="4h295" depart="14748.00" from="B11B10" to="B10A10"/>
    <trip id="4h296" depart="14748.00" from="E0E1" to="K9L9"/>
    <trip id="4h297" depart="14750.00" from="H11H10" to="H10H9"/>
    <trip id="4h298" depart="14750.00" from="B11B10" to="A3B3"/>
    <trip id="4h299" depart="14751.00" from="A1B1" to="B4A4"/>
    <trip id="4h300" depart="14752.00" from="B11B10" to="K7L7"/>
    <trip id="4h301" depart="14754.00" from="A7B7" to="B10A10"/>
    <trip id="4h302" depart="14754.00" from="L10K10" to="B4A4"/>
    <trip id="4h303" depart="14755.00" from="L4K4" to="F10F9"/>
    <trip id="4h304" depart="14757.00" from="F4E4" to="H4G4"/>
    <trip id="4h305" depart="14758.00" from="L10K10" to="F1G1"/>
    <trip id="4h306" depart="14759.00" from="B11B10" to="H1H0"/>
    <trip id="4h307" depart="14763.00" from="L10K10" to="F10F9"/>
    <trip id="4h308" depart="14764.00" from="A7B7" to="K1L1"/>
    <trip id="4h309" depart="14766.00" from="A7B7" to="B4A4"/>
    <trip id="4h310" depart="14767.00" from="K0K1" to="J4I4"/>
    <trip id="4h311" depart="14768.00" from="A7B7" to="B1B0"/>
    <trip id="4h312" depart="14768.00" from="L10K10" to="H1H0"/>
    <trip id="4h313" depart="14768.00" from="E0E1" to="K10K11"/>
    <trip id="4h314" depart="14768.00" from="B11B10" to="B1B0"/>
    <trip id="4h315" depart="14769.00" from="J5K5" to="K1L1"/>
    <trip id="4h316" depart="14771.00" from="L10K10" to="K1L1"/>
    <trip id="4h317" depart="14772.00" from="L4K4" to="K7L7"/>
    <trip id="4h318" depart="14772.00" from="E0E1" to="B4A4"/>
    <trip id="4h319" depart="14772.00" from="E0E1" to="E10E11"/>
    <trip id="4h320" depart="14775.00" from="A1B1" to="H1H0"/>
    <trip id="4h321" depart="14776.00" from="K3K4" to="B10A10"/>
    <trip id="4h322" depart="14778.00" from="E3F3" to="K10K11"/>
    <trip id="4h323" depart="14778.00" from="L4K4" to="H1H0"/>
    <trip id="4h324" depart="14780.00" from="A1B1" to="K1L1"/>
    <trip id="4h325" depart="14780.00" from="A7B7" to="B10A10"/>
    <trip id="4h326" depart="14781.00" from="I5I6" to="K10K11"/>
    <trip id="4h327" depart="14783.00" from="A7B7" to="B4A4"/>
    <trip id="4h328" depart="14784.00" from="I2I3" to="E10E11"/>
    <trip id="4h329" depart="14784.00" from="L10K10" to="K1L1"/>
    <trip id="4h330" depart="14785.00" from="L10K10" to="B1B0"/>
    <trip id="4h331" depart="14787.00" from="L4K4" to="B4A4"/>
    <trip id="4h332" depart="14787.00" from="L10K10" to="B10A10"/>
    <trip id="4h333" depart="14788.00" from="A1B1" to="B4A4"/>
    <trip id="4h334" depart="14793.00" from="L10K10" to="K10K11"/>
    <trip id="4h335" depart="14793.00" from="D9D8" to="B1B0"/>
    <trip id="4h336" depart="14795.00" from="A1B1" to="K10K11"/>
    <trip id="4h337" depart="14796.00" from="K3L3" to="E10E11"/>
    <trip id="4h338" depart="14797.00" from="H11H10" to="B1B0"/>
    <trip id="4h339" depart="14797.00" from="K0K1" to="E10E11"/>
    <trip id="4h340" depart="14798.00" from="H11H10" to="B10A10"/>
    <trip id="4h341" depart="14798.00" from="G3G4" to="K1L1"/>
    <trip id="4h342" depart="14799.00" from="K3L3" to="C3D3"/>
    <trip id="4h343" depart="14799.00" from="J9J10" to="E10E11"/>
    <trip id="4h344" depart="14799.00" from="B4B3" to="L8K8"/>
    <trip id="4h345" depart="14800.00" from="L10K10" to="B1B0"/>
    <trip id="4h346" depart="14800.00" from="L4K4" to="K7L7"/>
    <trip id="4h347" depart="14801.00" from="K0K1" to="B1B0"/>
    <trip id="4h348" depart="14801.00" from="B11B10" to="H1H0"/>
    <trip id="4h349" depart="14802.00" from="H11H10" to="J5K5"/>
    <trip id="4h350" depart="14802.00" from="A7B7" to="B4A4"/>
    <trip id="4h351" depart="14802.00" from="J1J0" to="B10A10"/>
    <trip id="4h352" depart="14803.00" from="L10K10" to="I8I7"/>
    <trip id="4h353" depart="14804.00" from="B11B10" to="H1H0"/>
    <trip id="4h354" depart="14805.00" from="H11H10" to="B4A4"/>
    <trip id="4h355" depart="14806.00" from="E0E1" to="K7L7"/>
    <trip id="4h356" depart="14812.00" from="K0K1" to="B10A10"/>
    <trip id="4h357" depart="14813.00" from="L4K4" to="L2K2"/>
    <trip id="4h358" depart="14813.00" from="K0K1" to="E10E11"/>
    <trip id="4h359" depart="14814.00" from="gneE5" to="H1H0"/>
    <trip id="4h360" depart="14815.00" from="B11B10" to="E10E11"/>
    <trip id="4h361" depart="14816.00" from="H11H10" to="B1B0"/>
    <trip id="4h362" depart="14821.00" from="L10K10" to="B4A4"/>
    <trip id="4h363" depart="14821.00" from="H11H10" to="B4A4"/>
    <trip id="4h364" depart="14822.00" from="A7B7" to="J10I10"/>
    <trip id="4h365" depart="14822.00" from="L10K10" to="J7J6"/>
    <trip id="4h366" depart="14822.00" from="E0E1" to="B1B0"/>
    <trip id="4h367" depart="14824.00" from="E0E1" to="H1H0"/>
    <trip id="4h368" depart="14827.00" from="A1B1" to="H6H5"/>
    <trip id="4h369" depart="14828.00" from="B11B10" to="B4A4"/>
    <trip id="4h370" depart="14828.00" from="K0K1" to="D2C2"/>
    <trip id="4h371" depart="14829.00" from="A7B7" to="C6C7"/>
    <trip id="4h372" depart="14831.00" from="L4K4" to="H7H6"/>
    <trip id="4h373" depart="14832.00" from="E0E1" to="G1G2"/>
    <trip id="4h374" depart="14833.00" from="F4E4" to="G2G3"/>
    <trip id="4h375" depart="14835.00" from="L4K4" to="K10K11"/>
    <trip id="4h376" depart="14835.00" from="E6F6" to="B10A10"/>
    <trip id="4h377" depart="14836.00" from="H5G5" to="G9H9"/>
    <trip id="4h378" depart="14837.00" from="H11H10" to="D1D2"/>
    <trip id="4h379" depart="14838.00" from="E0E1" to="B1B0"/>
    <trip id="4h380" depart="14841.00" from="F10E10" to="D7E7"/>
    <trip id="4h381" depart="14844.00" from="L4K4" to="H1H0"/>
    <trip id="4h382" depart="14845.00" from="A7B7" to="K1L1"/>
    <trip id="4h383" depart="14846.00" from="A7B7" to="B1B0"/>
    <trip id="4h384" depart="14847.00" from="A1B1" to="L5K5"/>
    <trip id="4h385" depart="14848.00" from="K0K1" to="K1L1"/>
    <trip id="4h386" depart="14850.00" from="A1B1" to="K10K11"/>
    <trip id="4h387" depart="14850.00" from="I4I3" to="E10E11"/>
    <trip id="4h388" depart="14853.00" from="L4K4" to="B10A10"/>
    <trip id="4h389" depart="14854.00" from="I10H10" to="K1L1"/>
    <trip id="4h390" depart="14854.00" from="D3D4" to="K1L1"/>
    <trip id="4h391" depart="14855.00" from="L4K4" to="K10K11"/>
    <trip id="4h392" depart="14855.00" from="E9F9" to="B1B0"/>
    <trip id="4h393" depart="14855.00" from="gneE10" to="K1L1"/>
    <trip id="4h394" depart="14856.00" from="G5G6" to="K1L1"/>
    <trip id="4h395" depart="14856.00" from="A7B7" to="B1B0"/>
    <trip id="4h396" depart="14857.00" from="A7B7" to="K7L7"/>
    <trip id="4h397" depart="14860.00" from="L4K4" to="E10E11"/>
    <trip id="4h398" depart="14860.00" from="L4K4" to="I2I1"/>
    <trip id="4h399" depart="14862.00" from="A1B1" to="B1B0"/>
    <trip id="4h400" depart="14863.00" from="A1B1" to="K7L7"/>
    <trip id="4h401" depart="14865.00" from="K3L3" to="E10E11"/>
    <trip id="4h402" depart="14865.00" from="L4K4" to="B4A4"/>
    <trip id="4h403" depart="14867.00" from="H11H10" to="B4A4"/>
    <trip id="4h404" depart="14869.00" from="L4K4" to="K1L1"/>
    <trip id="4h405" depart="14870.00" from="E3D3" to="K10K11"/>
    <trip id="4h406" depart="14870.00" from="E0E1" to="B1B0"/>
    <trip id="4h407" depart="14871.00" from="I0I1" to="K10K11"/>
    <trip id="4h408" depart="14871.00" from="H11H10" to="B5C5"/>
    <trip id="4h409" depart="14872.00" from="A1B1" to="K1L1"/>
    <trip id="4h410" depart="14872.00" from="A7B7" to="K1L1"/>
    <trip id="4h411" depart="14873.00" from="A7B7" to="J11J10"/>
    <trip id="4h412" depart="14873.00" from="K0K1" to="B1B0"/>
    <trip id="4h413" depart="14873.00" from="B5C5" to="K1L1"/>
    <trip id="4h414" depart="14876.00" from="A6B6" to="K1L1"/>
    <trip id="4h415" depart="14877.00" from="F5G5" to="B10A10"/>
    <trip id="4h416" depart="14877.00" from="I9J9" to="K7L7"/>
    <trip id="4h417" depart="14878.00" from="A7B7" to="G2F2"/>
    <trip id="4h418" depart="14878.00" from="B11B10" to="B1B0"/>
    <trip id="4h419" depart="14880.00" from="I5J5" to="B4A4"/>
    <trip id="4h420" depart="14881.00" from="K0K1" to="K7L7"/>
    <trip id="4h421" depart="14884.00" from="A7B7" to="K1L1"/>
    <trip id="4h422" depart="14885.00" from="L10K10" to="F7G7"/>
    <trip id="4h423" depart="14886.00" from="L4K4" to="B10A10"/>
    <trip id="4h424" depart="14887.00" from="H11H10" to="F2E2"/>
    <trip id="4h425" depart="14887.00" from="K0K1" to="K7L7"/>
    <trip id="4h426" depart="14888.00" from="E10D10" to="K10K11"/>
    <trip id="4h427" depart="14889.00" from="L4K4" to="C8C9"/>
    <trip id="4h428" depart="14889.00" from="E0E1" to="B4A4"/>
    <trip id="4h429" depart="14890.00" from="L10K10" to="K10K11"/>
    <trip id="4h430" depart="14890.00" from="L4K4" to="K10K11"/>
    <trip id="4h431" depart="14891.00" from="K0K1" to="B2C2"/>
    <trip id="4h432" depart="14892.00" from="D4C4" to="F5G5"/>
    <trip id="4h433" depart="14893.00" from="L4K4" to="E2E3"/>
    <trip id="4h434" depart="14893.00" from="L4K4" to="B4A4"/>
    <trip id="4h435" depart="14895.00" from="L10K10" to="B4A4"/>
    <trip id="4h436" depart="14897.00" from="D8C8" to="E1E2"/>
    <trip id="4h437" depart="14898.00" from="C10B10" to="B1B0"/>
    <trip id="4h438" depart="14899.00" from="C10C11" to="D3D4"/>
    <trip id="4h439" depart="14900.00" from="K0K1" to="K7L7"/>
    <trip id="4h440" depart="14902.00" from="I4H4" to="H1H0"/>
    <trip id="4h441" depart="14902.00" from="H11H10" to="E10E11"/>
    <trip id="4h442" depart="14902.00" from="G8F8" to="B1B0"/>
    <trip id="4h443" depart="14904.00" from="K0K1" to="E10E11"/>
    <trip id="4h444" depart="14905.00" from="B11B10" to="F10E10"/>
    <trip id="4h445" depart="14905.00" from="L4K4" to="K10K11"/>
    <trip id="4h446" depart="14905.00" from="E0E1" to="K7L7"/>
    <trip id="4h447" depart="14906.00" from="L10K10" to="K1L1"/>
    <trip id="4h448" depart="14907.00" from="A1B1" to="B4A4"/>
    <trip id="4h449" depart="14908.00" from="K0K1" to="H1H0"/>
    <trip id="4h450" depart="14909.00" from="C1D1" to="K5K6"/>
    <trip id="4h451" depart="14911.00" from="H11H10" to="E10E11"/>
    <trip id="4h452" depart="14913.00" from="L10K10" to="K7L7"/>
    <trip id="4h453" depart="14914.00" from="L10K10" to="B4A4"/>
    <trip id="4h454" depart="14915.00" from="K0K1" to="K1L1"/>
    <trip id="4h455" depart="14915.00" from="K3J3" to="K10K11"/>
    <trip id="4h456" depart="14915.00" from="A7B7" to="K1L1"/>
    <trip id="4h457" depart="14915.00" from="A7B7" to="B4A4"/>
    <trip id="4h458" depart="14915.00" from="J7J8" to="K10K11"/>
    <trip id="4h459" depart="14917.00" from="B11B10" to="B1B0"/>