<?xml version="1.0" encoding="UTF-8"?>
<!-- generated on 2020-12-09 03:20:40.015363 by randomTrips.py v1_7_0+0000-714814baed
  options: -n .\data/grid01-bcn_50.net.xml <doubleminus>prefix=1h <doubleminus>fringe-factor 100 -b 3600 -e 7200 -p5.660377358490566 <doubleminus>binomial 10 -odata/random/random_h_1-bcn_50.trips.rou.xml <doubleminus>edge-permission=passenger
-->
<routes xmlns:xsi="http://www.w3.org/2001/XMLSchema-instance" xsi:noNamespaceSchemaLocation="http://sumo.dlr.de/xsd/routes_file.xsd">
    <trip id="1h0" depart="3601.00" from="L10K10" to="K10K11"/>
    <trip id="1h1" depart="3609.00" from="K0K1" to="K10K11"/>
    <trip id="1h2" depart="3612.00" from="C4B4" to="B10A10"/>
    <trip id="1h3" depart="3626.00" from="L10K10" to="B4A4"/>
    <trip id="1h4" depart="3628.00" from="K0K1" to="I2I1"/>
    <trip id="1h5" depart="3628.00" from="A1B1" to="K7L7"/>
    <trip id="1h6" depart="3635.00" from="L4K4" to="H1H0"/>
    <trip id="1h7" depart="3638.00" from="B11B10" to="E10E11"/>
    <trip id="1h8" depart="3641.00" from="K0K1" to="K10K11"/>
    <trip id="1h9" depart="3646.00" from="D7E7" to="K10K11"/>
    <trip id="1h10" depart="3657.00" from="L4K4" to="B10A10"/>
    <trip id="1h11" depart="3661.00" from="H11H10" to="B4A4"/>
    <trip id="1h12" depart="3666.00" from="E0E1" to="H1H0"/>
    <trip id="1h13" depart="3685.00" from="L10K10" to="K7L7"/>
    <trip id="1h14" depart="3692.00" from="H11H10" to="E10E11"/>
    <trip id="1h15" depart="3699.00" from="L10K10" to="B1B0"/>
    <trip id="1h16" depart="3700.00" from="L10K10" to="B4A4"/>
    <trip id="1h17" depart="3709.00" from="L10K10" to="H1H0"/>
    <trip id="1h18" depart="3713.00" from="B2B1" to="B4A4"/>
    <trip id="1h19" depart="3713.00" from="K0K1" to="B1B0"/>
    <trip id="1h20" depart="3735.00" from="A1B1" to="B4A4"/>
    <trip id="1h21" depart="3736.00" from="H10G10" to="B4A4"/>
    <trip id="1h22" depart="3738.00" from="L10K10" to="D4C4"/>
    <trip id="1h23" depart="3776.00" from="H11H10" to="K7L7"/>
    <trip id="1h24" depart="3778.00" from="H11H10" to="B1B0"/>
    <trip id="1h25" depart="3782.00" from="J11J10" to="K10K11"/>
    <trip id="1h26" depart="3790.00" from="A1B1" to="B4A4"/>
    <trip id="1h27" depart="3792.00" from="B11B10" to="B10A10"/>
    <trip id="1h28" depart="3799.00" from="L4K4" to="K7L7"/>
    <trip id="1h29" depart="3805.00" from="G5G6" to="E10E11"/>
    <trip id="1h30" depart="3806.00" from="H11H10" to="B10A10"/>
    <trip id="1h31" depart="3806.00" from="L10K10" to="K10J10"/>
    <trip id="1h32" depart="3808.00" from="A7B7" to="G2F2"/>
    <trip id="1h33" depart="3815.00" from="B6B5" to="E10E11"/>
    <trip id="1h34" depart="3826.00" from="B11B10" to="G7H7"/>
    <trip id="1h35" depart="3835.00" from="A7B7" to="K1L1"/>
    <trip id="1h36" depart="3844.00" from="K2K3" to="K10K11"/>
    <trip id="1h37" depart="3846.00" from="L4K4" to="B2A2"/>
    <trip id="1h38" depart="3848.00" from="F10F9" to="B1B0"/>
    <trip id="1h39" depart="3849.00" from="K0K1" to="K1L1"/>
    <trip id="1h40" depart="3850.00" from="I8I9" to="E10E11"/>
    <trip id="1h41" depart="3855.00" from="A1B1" to="B4A4"/>
    <trip id="1h42" depart="3865.00" from="B10B9" to="H1H0"/>
    <trip id="1h43" depart="3866.00" from="E0E1" to="B4A4"/>
    <trip id="1h44" depart="3866.00" from="J1K1" to="K1L1"/>
    <trip id="1h45" depart="3873.00" from="L10K10" to="K9J9"/>
    <trip id="1h46" depart="3883.00" from="L4K4" to="B1C1"/>
    <trip id="1h47" depart="3889.00" from="E0E1" to="K10K11"/>
    <trip id="1h48" depart="3911.00" from="L4K4" to="I6I7"/>
    <trip id="1h49" depart="3911.00" from="B11B10" to="K1L1"/>
    <trip id="1h50" depart="3921.00" from="B11B10" to="K10K11"/>
    <trip id="1h51" depart="3922.00" from="C3B3" to="K1L1"/>
    <trip id="1h52" depart="3930.00" from="J9J10" to="K7L7"/>
    <trip id="1h53" depart="3941.00" from="A1B1" to="H1H0"/>
    <trip id="1h54" depart="3954.00" from="B11B10" to="H4G4"/>
    <trip id="1h55" depart="3960.00" from="J7K7" to="E10E11"/>
    <trip id="1h56" depart="3962.00" from="A1B1" to="J8K8"/>
    <trip id="1h57" depart="3965.00" from="K0K1" to="H1H0"/>
    <trip id="1h58" depart="3968.00" from="H11H10" to="H1H0"/>
    <trip id="1h59" depart="3972.00" from="B11B10" to="B4A4"/>
    <trip id="1h60" depart="3991.00" from="J1J0" to="K10K11"/>
    <trip id="1h61" depart="3994.00" from="A1B1" to="B1B0"/>
    <trip id="1h62" depart="3997.00" from="A7B7" to="gneE6"/>
    <trip id="1h63" depart="4002.00" from="L10K10" to="B4A4"/>
    <trip id="1h64" depart="4008.00" from="B11B10" to="H1H0"/>
    <trip id="1h65" depart="4022.00" from="L10K10" to="K1L1"/>
    <trip id="1h66" depart="4022.00" from="L4K4" to="K7L7"/>
    <trip id="1h67" depart="4022.00" from="E0E1" to="B4A4"/>
    <trip id="1h68" depart="4022.00" from="E0E1" to="E10E11"/>
    <trip id="1h69" depart="4031.00" from="A1B1" to="K1L1"/>
    <trip id="1h70" depart="4035.00" from="I2I3" to="E10E11"/>
    <trip id="1h71" depart="4050.00" from="K3L3" to="E10E11"/>
    <trip id="1h72" depart="4056.00" from="K0K1" to="B1B0"/>
    <trip id="1h73" depart="4058.00" from="E0E1" to="B4A4"/>
    <trip id="1h74" depart="4069.00" from="B11B10" to="E10E11"/>
    <trip id="1h75" depart="4078.00" from="L10K10" to="B4A4"/>
    <trip id="1h76" depart="4085.00" from="A1B1" to="H6H5"/>
    <trip id="1h77" depart="4086.00" from="B11B10" to="B4A4"/>
    <trip id="1h78" depart="4087.00" from="K0K1" to="D2C2"/>
    <trip id="1h79" depart="4094.00" from="L4K4" to="K10K11"/>
    <trip id="1h80" depart="4096.00" from="H5G5" to="G9H9"/>
    <trip id="1h81" depart="4106.00" from="A7B7" to="B1B0"/>
    <trip id="1h82" depart="4108.00" from="L5K5" to="E10E11"/>
    <trip id="1h83" depart="4111.00" from="K0K1" to="F5G5"/>
    <trip id="1h84" depart="4118.00" from="A7B7" to="B1B0"/>
    <trip id="1h85" depart="4122.00" from="L4K4" to="E10E11"/>
    <trip id="1h86" depart="4125.00" from="A1B1" to="B1B0"/>
    <trip id="1h87" depart="4132.00" from="L4K4" to="K1L1"/>
    <trip id="1h88" depart="4142.00" from="F5G5" to="B10A10"/>
    <trip id="1h89" depart="4144.00" from="B11B10" to="B1B0"/>
    <trip id="1h90" depart="4153.00" from="L4K4" to="B10A10"/>
    <trip id="1h91" depart="4154.00" from="K0K1" to="K7L7"/>
    <trip id="1h92" depart="4169.00" from="K0K1" to="K7L7"/>
    <trip id="1h93" depart="4178.00" from="B11B10" to="K7L7"/>
    <trip id="1h94" depart="4183.00" from="H11H10" to="E10E11"/>
    <trip id="1h95" depart="4190.00" from="B11B10" to="B1B0"/>
    <trip id="1h96" depart="4233.00" from="A7B7" to="C3D3"/>
    <trip id="1h97" depart="4244.00" from="L4K4" to="J1J2"/>
    <trip id="1h98" depart="4253.00" from="A7B7" to="B1B0"/>
    <trip id="1h99" depart="4255.00" from="A7B7" to="B10A10"/>
    <trip id="1h100" depart="4257.00" from="H8I8" to="K10K11"/>
    <trip id="1h101" depart="4271.00" from="L10K10" to="K7L7"/>
    <trip id="1h102" depart="4273.00" from="B11B10" to="H1H0"/>
    <trip id="1h103" depart="4296.00" from="E6D6" to="K1L1"/>
    <trip id="1h104" depart="4297.00" from="L4K4" to="F3G3"/>
    <trip id="1h105" depart="4300.00" from="K0K1" to="I6H6"/>
    <trip id="1h106" depart="4300.00" from="F10F9" to="K7L7"/>
    <trip id="1h107" depart="4302.00" from="E4E5" to="K7L7"/>
    <trip id="1h108" depart="4308.00" from="A7B7" to="B10A10"/>
    <trip id="1h109" depart="4313.00" from="E0E1" to="K1L1"/>
    <trip id="1h110" depart="4317.00" from="H11H10" to="K10K11"/>
    <trip id="1h111" depart="4319.00" from="B11B10" to="B4A4"/>
    <trip id="1h112" depart="4333.00" from="B1C1" to="K1L1"/>
    <trip id="1h113" depart="4336.00" from="L10K10" to="K1L1"/>
    <trip id="1h114" depart="4342.00" from="A7B7" to="B10A10"/>
    <trip id="1h115" depart="4348.00" from="A7B7" to="K7L7"/>
    <trip id="1h116" depart="4351.00" from="K10J10" to="K10K11"/>
    <trip id="1h117" depart="4362.00" from="L10K10" to="B10A10"/>
    <trip id="1h118" depart="4367.00" from="G2G3" to="K10K11"/>
    <trip id="1h119" depart="4371.00" from="K0K1" to="I5I6"/>
    <trip id="1h120" depart="4374.00" from="A1B1" to="K10K11"/>
    <trip id="1h121" depart="4377.00" from="H11H10" to="L8K8"/>
    <trip id="1h122" depart="4377.00" from="H11H10" to="L5K5"/>
    <trip id="1h123" depart="4381.00" from="E0E1" to="B10A10"/>
    <trip id="1h124" depart="4389.00" from="A1B1" to="H1H0"/>
    <trip id="1h125" depart="4396.00" from="K0K1" to="H1H0"/>
    <trip id="1h126" depart="4405.00" from="B2A2" to="K7L7"/>
    <trip id="1h127" depart="4411.00" from="E0E1" to="K7L7"/>
    <trip id="1h128" depart="4414.00" from="G9G10" to="B1B0"/>
    <trip id="1h129" depart="4423.00" from="L4K4" to="B1B0"/>
    <trip id="1h130" depart="4435.00" from="H11H10" to="K1L1"/>
    <trip id="1h131" depart="4444.00" from="D6C6" to="H1H0"/>
    <trip id="1h132" depart="4451.00" from="L4K4" to="K7L7"/>
    <trip id="1h133" depart="4457.00" from="L4K4" to="B1B0"/>
    <trip id="1h134" depart="4460.00" from="gneE3" to="B10A10"/>
    <trip id="1h135" depart="4466.00" from="L10K10" to="K10K11"/>
    <trip id="1h136" depart="4471.00" from="E0E1" to="B4A4"/>
    <trip id="1h137" depart="4480.00" from="L10K10" to="B4A4"/>
    <trip id="1h138" depart="4486.00" from="K6L6" to="H1H0"/>
    <trip id="1h139" depart="4488.00" from="E0E1" to="K1L1"/>
    <trip id="1h140" depart="4490.00" from="L10K10" to="B10A10"/>
    <trip id="1h141" depart="4495.00" from="E0E1" to="B4A4"/>
    <trip id="1h142" depart="4496.00" from="A7B7" to="E10E11"/>
    <trip id="1h143" depart="4504.00" from="A7B7" to="H1H0"/>
    <trip id="1h144" depart="4512.00" from="C6B6" to="E6D6"/>
    <trip id="1h145" depart="4518.00" from="A7B7" to="C3D3"/>
    <trip id="1h146" depart="4523.00" from="B11B10" to="K1L1"/>
    <trip id="1h147" depart="4532.00" from="F10E10" to="C9B9"/>
    <trip id="1h148" depart="4534.00" from="D8C8" to="K10K11"/>
    <trip id="1h149" depart="4540.00" from="A1B1" to="B4A4"/>
    <trip id="1h150" depart="4541.00" from="B11B10" to="D7D6"/>
    <trip id="1h151" depart="4547.00" from="L10K10" to="K3K4"/>
    <trip id="1h152" depart="4550.00" from="F4F5" to="K10K11"/>
    <trip id="1h153" depart="4550.00" from="H11H10" to="B1B0"/>
    <trip id="1h154" depart="4554.00" from="B2C2" to="I5J5"/>
    <trip id="1h155" depart="4574.00" from="K0K1" to="K1L1"/>
    <trip id="1h156" depart="4583.00" from="L10K10" to="K7L7"/>
    <trip id="1h157" depart="4598.00" from="A7B7" to="B4A4"/>
    <trip id="1h158" depart="4607.00" from="L10K10" to="B10A10"/>
    <trip id="1h159" depart="4611.00" from="A7B7" to="E10E11"/>
    <trip id="1h160" depart="4612.00" from="A1B1" to="H1H0"/>
    <trip id="1h161" depart="4623.00" from="L10K10" to="H1H0"/>
    <trip id="1h162" depart="4625.00" from="G1G0" to="E10E11"/>
    <trip id="1h163" depart="4629.00" from="K0K1" to="K10K11"/>
    <trip id="1h164" depart="4634.00" from="E0E1" to="B1B0"/>
    <trip id="1h165" depart="4643.00" from="E0E1" to="H1H0"/>
    <trip id="1h166" depart="4643.00" from="B7C7" to="B10A10"/>
    <trip id="1h167" depart="4647.00" from="L10K10" to="K1L1"/>
    <trip id="1h168" depart="4650.00" from="B11B10" to="D7D8"/>
    <trip id="1h169" depart="4657.00" from="E0E1" to="C9D9"/>
    <trip id="1h170" depart="4662.00" from="A7B7" to="K7L7"/>
    <trip id="1h171" depart="4668.00" from="C1D1" to="H1H0"/>
    <trip id="1h172" depart="4673.00" from="C4B4" to="I1J1"/>
    <trip id="1h173" depart="4681.00" from="D2C2" to="D5D4"/>
    <trip id="1h174" depart="4693.00" from="A1B1" to="K10K11"/>
    <trip id="1h175" depart="4702.00" from="L4K4" to="D2E2"/>
    <trip id="1h176" depart="4709.00" from="K0K1" to="H1H0"/>
    <trip id="1h177" depart="4724.00" from="E0E1" to="B10A10"/>
    <trip id="1h178" depart="4727.00" from="L10K10" to="B10A10"/>
    <trip id="1h179" depart="4734.00" from="L10K10" to="E10E11"/>
    <trip id="1h180" depart="4739.00" from="L4K4" to="B10A10"/>
    <trip id="1h181" depart="4750.00" from="K0K1" to="D8E8"/>
    <trip id="1h182" depart="4753.00" from="B11B10" to="H1H0"/>
    <trip id="1h183" depart="4756.00" from="A7B7" to="B8A8"/>
    <trip id="1h184" depart="4773.00" from="B11B10" to="B10A10"/>
    <trip id="1h185" depart="4781.00" from="H11H10" to="K10K11"/>
    <trip id="1h186" depart="4785.00" from="E0E1" to="B10A10"/>
    <trip id="1h187" depart="4797.00" from="L4K4" to="B4A4"/>
    <trip id="1h188" depart="4797.00" from="B11B10" to="K1L1"/>
    <trip id="1h189" depart="4818.00" from="L10K10" to="B10A10"/>
    <trip id="1h190" depart="4825.00" from="L4K4" to="E10E11"/>
    <trip id="1h191" depart="4831.00" from="A1B1" to="K1L1"/>
    <trip id="1h192" depart="4832.00" from="L10K10" to="B4A4"/>
    <trip id="1h193" depart="4834.00" from="A7B7" to="B1B0"/>
    <trip id="1h194" depart="4837.00" from="K0K1" to="B10A10"/>
    <trip id="1h195" depart="4841.00" from="L10K10" to="J4I4"/>
    <trip id="1h196" depart="4844.00" from="B5C5" to="B1B0"/>
    <trip id="1h197" depart="4852.00" from="B11B10" to="B1B0"/>
    <trip id="1h198" depart="4861.00" from="K0K1" to="H1H0"/>
    <trip id="1h199" depart="4867.00" from="A1B1" to="B10A10"/>
    <trip id="1h200" depart="4867.00" from="B11B10" to="A3B3"/>
    <trip id="1h201" depart="4871.00" from="L4K4" to="J1K1"/>
    <trip id="1h202" depart="4881.00" from="L10K10" to="G5G4"/>
    <trip id="1h203" depart="4887.00" from="A7B7" to="K1L1"/>
    <trip id="1h204" depart="4889.00" from="K3K4" to="K1L1"/>
    <trip id="1h205" depart="4895.00" from="A1B1" to="K1L1"/>
    <trip id="1h206" depart="4895.00" from="L10K10" to="B1B0"/>
    <trip id="1h207" depart="4908.00" from="A7B7" to="K7L7"/>
    <trip id="1h208" depart="4911.00" from="D1D0" to="H5I5"/>
    <trip id="1h209" depart="4925.00" from="L10K10" to="K10K11"/>
    <trip id="1h210" depart="4927.00" from="E3F3" to="K1L1"/>
    <trip id="1h211" depart="4930.00" from="E0E1" to="I2I3"/>
    <trip id="1h212" depart="4930.00" from="B11B10" to="E10E11"/>
    <trip id="1h213" depart="4938.00" from="A1B1" to="K1L1"/>
    <trip id="1h214" depart="4946.00" from="H11H10" to="F9F8"/>
    <trip id="1h215" depart="4947.00" from="A7B7" to="B1B0"/>
    <trip id="1h216" depart="4956.00" from="K6L6" to="K7L7"/>
    <trip id="1h217" depart="4958.00" from="F4E4" to="K1L1"/>
    <trip id="1h218" depart="4967.00" from="B11B10" to="K1L1"/>
    <trip id="1h219" depart="4973.00" from="D9D8" to="L8K8"/>
    <trip id="1h220" depart="4982.00" from="B11B10" to="K10K11"/>
    <trip id="1h221" depart="4983.00" from="H11H10" to="B4A4"/>
    <trip id="1h222" depart="4987.00" from="A7B7" to="B4A4"/>
    <trip id="1h223" depart="4995.00" from="L4K4" to="C5C6"/>
    <trip id="1h224" depart="4995.00" from="A7B7" to="B1B0"/>
    <trip id="1h225" depart="5002.00" from="K0K1" to="K7L7"/>
    <trip id="1h226" depart="5014.00" from="A1B1" to="J6I6"/>
    <trip id="1h227" depart="5018.00" from="B11B10" to="B4A4"/>
    <trip id="1h228" depart="5021.00" from="H5I5" to="I1J1"/>
    <trip id="1h229" depart="5022.00" from="H6H5" to="B4A4"/>
    <trip id="1h230" depart="5034.00" from="A7B7" to="K1L1"/>
    <trip id="1h231" depart="5036.00" from="H4G4" to="B4A4"/>
    <trip id="1h232" depart="5054.00" from="L10K10" to="B4A4"/>
    <trip id="1h233" depart="5054.00" from="D4C4" to="E10E11"/>
    <trip id="1h234" depart="5059.00" from="J7J8" to="G9H9"/>
    <trip id="1h235" depart="5062.00" from="G11G10" to="E10E11"/>
    <trip id="1h236" depart="5076.00" from="H11H10" to="B10A10"/>
    <trip id="1h237" depart="5077.00" from="C9D9" to="gneE0"/>
    <trip id="1h238" depart="5079.00" from="A7B7" to="K7L7"/>
    <trip id="1h239" depart="5085.00" from="I4I5" to="K10K11"/>
    <trip id="1h240" depart="5092.00" from="C2C1" to="F6F5"/>
    <trip id="1h241" depart="5104.00" from="D1E1" to="B10A10"/>
    <trip id="1h242" depart="5106.00" from="E0E1" to="H10G10"/>
    <trip id="1h243" depart="5108.00" from="B4B3" to="B10A10"/>
    <trip id="1h244" depart="5108.00" from="A1B1" to="B4A4"/>
    <trip id="1h245" depart="5126.00" from="E0E1" to="E8E9"/>
    <trip id="1h246" depart="5131.00" from="J6I6" to="K8K9"/>
    <trip id="1h247" depart="5133.00" from="A1B1" to="K7L7"/>
    <trip id="1h248" depart="5145.00" from="A9B9" to="J8K8"/>
    <trip id="1h249" depart="5150.00" from="B11B10" to="gneE7"/>
    <trip id="1h250" depart="5154.00" from="K0K1" to="K7L7"/>
    <trip id="1h251" depart="5160.00" from="A7B7" to="K1L1"/>
    <trip id="1h252" depart="5167.00" from="H11H10" to="B10B9"/>
    <trip id="1h253" depart="5183.00" from="L10K10" to="B7C7"/>
    <trip id="1h254" depart="5189.00" from="F10E10" to="H10H9"/>
    <trip id="1h255" depart="5190.00" from="L10K10" to="E10E11"/>
    <trip id="1h256" depart="5199.00" from="L10K10" to="K1L1"/>
    <trip id="1h257" depart="5202.00" from="K0K1" to="K10K11"/>
    <trip id="1h258" depart="5208.00" from="B11B10" to="K7L7"/>
    <trip id="1h259" depart="5208.00" from="K0K1" to="E10E11"/>
    <trip id="1h260" depart="5209.00" from="A1B1" to="B4A4"/>
    <trip id="1h261" depart="5212.00" from="L10K10" to="E10E11"/>
    <trip id="1h262" depart="5214.00" from="I6I7" to="K7L7"/>
    <trip id="1h263" depart="5215.00" from="K1K2" to="K10K11"/>
    <trip id="1h264" depart="5220.00" from="L4K4" to="H1H0"/>
    <trip id="1h265" depart="5220.00" from="L4K4" to="K7L7"/>
    <trip id="1h266" depart="5227.00" from="A1B1" to="H1H0"/>
    <trip id="1h267" depart="5231.00" from="L4K4" to="B4A4"/>
    <trip id="1h268" depart="5244.00" from="A1B1" to="B1B0"/>
    <trip id="1h269" depart="5248.00" from="E0E1" to="K7L7"/>
    <trip id="1h270" depart="5248.00" from="K0K1" to="H1H0"/>
    <trip id="1h271" depart="5248.00" from="D6C6" to="K7L7"/>
    <trip id="1h272" depart="5253.00" from="F8E8" to="E10E11"/>
    <trip id="1h273" depart="5256.00" from="K0K1" to="H1H0"/>
    <trip id="1h274" depart="5261.00" from="E0E1" to="B10A10"/>
    <trip id="1h275" depart="5269.00" from="A7B7" to="H7I7"/>
    <trip id="1h276" depart="5269.00" from="A1B1" to="B4A4"/>
    <trip id="1h277" depart="5278.00" from="I6I7" to="E10E11"/>
    <trip id="1h278" depart="5304.00" from="E0E1" to="F0F1"/>
    <trip id="1h279" depart="5313.00" from="J3J2" to="B4A4"/>
    <trip id="1h280" depart="5316.00" from="L4K4" to="B10A10"/>
    <trip id="1h281" depart="5317.00" from="A7B7" to="B4A4"/>
    <trip id="1h282" depart="5317.00" from="H5G5" to="I9J9"/>
    <trip id="1h283" depart="5324.00" from="E0E1" to="H1H0"/>
    <trip id="1h284" depart="5334.00" from="L4K4" to="H1H0"/>
    <trip id="1h285" depart="5348.00" from="L10K10" to="B1B0"/>
    <trip id="1h286" depart="5351.00" from="E0E1" to="B1B0"/>
    <trip id="1h287" depart="5361.00" from="H11H10" to="B1B0"/>
    <trip id="1h288" depart="5372.00" from="K0K1" to="B1B0"/>
    <trip id="1h289" depart="5373.00" from="L10K10" to="B1B0"/>
    <trip id="1h290" depart="5379.00" from="A1B1" to="K7L7"/>
    <trip id="1h291" depart="5379.00" from="H9H8" to="C4C5"/>
    <trip id="1h292" depart="5387.00" from="L4K4" to="H1H0"/>
    <trip id="1h293" depart="5391.00" from="E0E1" to="B4A4"/>
    <trip id="1h294" depart="5398.00" from="L10K10" to="H1H0"/>
    <trip id="1h295" depart="5401.00" from="L4K4" to="E10E11"/>
    <trip id="1h296" depart="5408.00" from="L10K10" to="K7L7"/>
    <trip id="1h297" depart="5417.00" from="L10K10" to="E10E11"/>
    <trip id="1h298" depart="5427.00" from="C5D5" to="H1H0"/>
    <trip id="1h299" depart="5433.00" from="L4K4" to="H1H0"/>
    <trip id="1h300" depart="5440.00" from="L4K4" to="B4A4"/>
    <trip id="1h301" depart="5443.00" from="A7B7" to="E10E11"/>
    <trip id="1h302" depart="5445.00" from="A7B7" to="G5G6"/>
    <trip id="1h303" depart="5452.00" from="K0K1" to="B10A10"/>
    <trip id="1h304" depart="5459.00" from="E6D6" to="H1H0"/>
    <trip id="1h305" depart="5463.00" from="B11B10" to="B4A4"/>
    <trip id="1h306" depart="5464.00" from="D2E2" to="B4A4"/>
    <trip id="1h307" depart="5474.00" from="A1B1" to="B1B0"/>
    <trip id="1h308" depart="5474.00" from="L4K4" to="A6B6"/>
    <trip id="1h309" depart="5475.00" from="H10H9" to="H1H0"/>
    <trip id="1h310" depart="5482.00" from="E0E1" to="C4B4"/>
    <trip id="1h311" depart="5486.00" from="B11B10" to="B1B0"/>
    <trip id="1h312" depart="5493.00" from="G2F2" to="K10K11"/>
    <trip id="1h313" depart="5501.00" from="J7K7" to="B4A4"/>
    <trip id="1h314" depart="5504.00" from="L4K4" to="G1G0"/>
    <trip id="1h315" depart="5509.00" from="A7B7" to="B4A4"/>
    <trip id="1h316" depart="5510.00" from="A7B7" to="E7E8"/>
    <trip id="1h317" depart="5513.00" from="L10K10" to="H1H0"/>
    <trip id="1h318" depart="5514.00" from="I9H9" to="J7K7"/>
    <trip id="1h319" depart="5517.00" from="L4K4" to="B4A4"/>
    <trip id="1h320" depart="5519.00" from="L4K4" to="K10K11"/>
    <trip id="1h321" depart="5528.00" from="A7B7" to="E10E11"/>
    <trip id="1h322" depart="5530.00" from="J10I10" to="E10E11"/>
    <trip id="1h323" depart="5534.00" from="A7B7" to="J1J2"/>
    <trip id="1h324" depart="5544.00" from="B11B10" to="H1H0"/>
    <trip id="1h325" depart="5548.00" from="K0K1" to="gneE3"/>
    <trip id="1h326" depart="5549.00" from="K0K1" to="B1B0"/>
    <trip id="1h327" depart="5551.00" from="A7B7" to="E10E11"/>
    <trip id="1h328" depart="5554.00" from="H11H10" to="D5E5"/>
    <trip id="1h329" depart="5575.00" from="A1B1" to="K7L7"/>
    <trip id="1h330" depart="5576.00" from="H11H10" to="B4A4"/>
    <trip id="1h331" depart="5577.00" from="L4K4" to="H2H1"/>
    <trip id="1h332" depart="5585.00" from="D1D2" to="G2G3"/>
    <trip id="1h333" depart="5586.00" from="L10K10" to="H1H0"/>
    <trip id="1h334" depart="5590.00" from="H11H10" to="C9B9"/>
    <trip id="1h335" depart="5598.00" from="A7B7" to="K1L1"/>
    <trip id="1h336" depart="5603.00" from="B11B10" to="H1H0"/>
    <trip id="1h337" depart="5605.00" from="I10I11" to="K7L7"/>
    <trip id="1h338" depart="5607.00" from="L4K4" to="K1L1"/>
    <trip id="1h339" depart="5611.00" from="A1B1" to="B1B0"/>
    <trip id="1h340" depart="5611.00" from="H5I5" to="E1E2"/>
    <trip id="1h341" depart="5613.00" from="A7B7" to="K10K11"/>
    <trip id="1h342" depart="5615.00" from="L4K4" to="B4A4"/>
    <trip id="1h343" depart="5621.00" from="E0E1" to="B10A10"/>
    <trip id="1h344" depart="5633.00" from="B11B10" to="K7L7"/>
    <trip id="1h345" depart="5634.00" from="G1G0" to="G11G10"/>
    <trip id="1h346" depart="5637.00" from="B11B10" to="E10E11"/>
    <trip id="1h347" depart="5640.00" from="D5D4" to="K10K11"/>
    <trip id="1h348" depart="5642.00" from="B11B10" to="K1L1"/>
    <trip id="1h349" depart="5642.00" from="B8A8" to="K7L7"/>
    <trip id="1h350" depart="5651.00" from="F1G1" to="B4A4"/>
    <trip id="1h351" depart="5656.00" from="A1B1" to="K10K11"/>
    <trip id="1h352" depart="5656.00" from="H11H10" to="B1B0"/>
    <trip id="1h353" depart="5661.00" from="H11H10" to="K10K11"/>
    <trip id="1h354" depart="5663.00" from="L4K4" to="E10E11"/>
    <trip id="1h355" depart="5664.00" from="A7B7" to="K1L1"/>
    <trip id="1h356" depart="5664.00" from="E0E1" to="K10K11"/>
    <trip id="1h357" depart="5669.00" from="K0K1" to="B10A10"/>
    <trip id="1h358" depart="5670.00" from="I4I3" to="H1H0"/>
    <trip id="1h359" depart="5675.00" from="J9J8" to="C7D7"/>
    <trip id="1h360" depart="5677.00" from="L10K10" to="K1L1"/>
    <trip id="1h361" depart="5679.00" from="H11H10" to="B10A10"/>
    <trip id="1h362" depart="5688.00" from="K0K1" to="B1B0"/>
    <trip id="1h363" depart="5693.00" from="H4G4" to="K7L7"/>
    <trip id="1h364" depart="5696.00" from="A1B1" to="H1H0"/>
    <trip id="1h365" depart="5699.00" from="K3J3" to="K1L1"/>
    <trip id="1h366" depart="5701.00" from="K0K1" to="I2I3"/>
    <trip id="1h367" depart="5703.00" from="C10C11" to="B10A10"/>
    <trip id="1h368" depart="5706.00" from="A7B7" to="B8B7"/>
    <trip id="1h369" depart="5708.00" from="H11H10" to="K10K11"/>
    <trip id="1h370" depart="5743.00" from="gneE7" to="K10K11"/>
    <trip id="1h371" depart="5752.00" from="E7F7" to="B4A4"/>
    <trip id="1h372" depart="5754.00" from="A1B1" to="C3B3"/>
    <trip id="1h373" depart="5756.00" from="L10K10" to="B10A10"/>
    <trip id="1h374" depart="5757.00" from="L10K10" to="K1L1"/>
    <trip id="1h375" depart="5758.00" from="A1B1" to="B1B0"/>
    <trip id="1h376" depart="5765.00" from="B11B10" to="G8G9"/>
    <trip id="1h377" depart="5776.00" from="A1B1" to="H1H0"/>
    <trip id="1h378" depart="5780.00" from="E0E1" to="H1H0"/>
    <trip id="1h379" depart="5785.00" from="B11B10" to="J11J10"/>
    <trip id="1h380" depart="5791.00" from="A7B7" to="K7L7"/>
    <trip id="1h381" depart="5791.00" from="L4K4" to="H1H0"/>
    <trip id="1h382" depart="5801.00" from="L10K10" to="G7G8"/>
    <trip id="1h383" depart="5802.00" from="I2I3" to="K1L1"/>
    <trip id="1h384" depart="5807.00" from="L4K4" to="B4A4"/>
    <trip id="1h385" depart="5813.00" from="L10K10" to="H1H0"/>
    <trip id="1h386" depart="5815.00" from="A1B1" to="B10A10"/>
    <trip id="1h387" depart="5818.00" from="B11B10" to="B1B0"/>
    <trip id="1h388" depart="5818.00" from="A1B1" to="B10A10"/>
    <trip id="1h389" depart="5824.00" from="B11B10" to="B1B0"/>
    <trip id="1h390" depart="5825.00" from="A7B7" to="E10E11"/>
    <trip id="1h391" depart="5826.00" from="I6H6" to="B1B0"/>
    <trip id="1h392" depart="5843.00" from="E0E1" to="B1B0"/>
    <trip id="1h393" depart="5847.00" from="L4K4" to="K7L7"/>
    <trip id="1h394" depart="5850.00" from="A7B7" to="H8I8"/>
    <trip id="1h395" depart="5850.00" from="A1B1" to="B1B0"/>
    <trip id="1h396" depart="5855.00" from="A7B7" to="C8C7"/>
    <trip id="1h397" depart="5859.00" from="L4K4" to="H10H9"/>
    <trip id="1h398" depart="5866.00" from="L10K10" to="D2C2"/>
    <trip id="1h399" depart="5875.00" from="H11H10" to="E10E11"/>
    <trip id="1h400" depart="5877.00" from="A1B1" to="K10K11"/>
    <trip id="1h401" depart="5883.00" from="L10K10" to="K10K11"/>
    <trip id="1h402" depart="5886.00" from="L4K4" to="B10A10"/>
    <trip id="1h403" depart="5887.00" from="L4K4" to="K1L1"/>
    <trip id="1h404" depart="5891.00" from="D6C6" to="K10K11"/>
    <trip id="1h405" depart="5896.00" from="K0K1" to="B1B0"/>
    <trip id="1h406" depart="5897.00" from="B11B10" to="H1H0"/>
    <trip id="1h407" depart="5903.00" from="A7B7" to="B1B0"/>
    <trip id="1h408" depart="5906.00" from="L4K4" to="I3H3"/>
    <trip id="1h409" depart="5912.00" from="G7G6" to="H1H0"/>
    <trip id="1h410" depart="5915.00" from="E2E3" to="B4A4"/>
    <trip id="1h411" depart="5917.00" from="H11H10" to="B10A10"/>
    <trip id="1h412" depart="5917.00" from="gneE2" to="B10A10"/>
    <trip id="1h413" depart="5926.00" from="H4H3" to="B10A10"/>
    <trip id="1h414" depart="5937.00" from="I4I5" to="D5D4"/>
    <trip id="1h415" depart="5938.00" from="gneE0" to="B10A10"/>
    <trip id="1h416" depart="5945.00" from="K0K1" to="H1H0"/>
    <trip id="1h417" depart="5974.00" from="K10J10" to="E8E9"/>
    <trip id="1h418" depart="5978.00" from="L4K4" to="B5A5"/>
    <trip id="1h419" depart="5981.00" from="H11H10" to="E10E11"/>
    <trip id="1h420" depart="5988.00" from="E0E1" to="B1B0"/>
    <trip id="1h421" depart="5994.00" from="K0K1" to="K1L1"/>
    <trip id="1h422" depart="5995.00" from="K0K1" to="E1F1"/>
    <trip id="1h423" depart="6005.00" from="B11B10" to="K7L7"/>
    <trip id="1h424" depart="6017.00" from="L4K4" to="B4A4"/>
    <trip id="1h425" depart="6022.00" from="E0E1" to="B1B0"/>
    <trip id="1h426" depart="6022.00" from="I4I3" to="B10A10"/>
    <trip id="1h427" depart="6022.00" from="A7B7" to="K10K11"/>
    <trip id="1h428" depart="6026.00" from="L4K4" to="K3J3"/>
    <trip id="1h429" depart="6028.00" from="D9D8" to="E10E11"/>
    <trip id="1h430" depart="6036.00" from="E0E1" to="B10A10"/>
    <trip id="1h431" depart="6043.00" from="H11H10" to="B1B0"/>
    <trip id="1h432" depart="6046.00" from="E0E1" to="B4A4"/>
    <trip id="1h433" depart="6053.00" from="C6B6" to="K10K11"/>
    <trip id="1h434" depart="6068.00" from="B11B10" to="K7L7"/>
    <trip id="1h435" depart="6070.00" from="B11B10" to="B1B0"/>
    <trip id="1h436" depart="6085.00" from="K3J3" to="K10K11"/>
    <trip id="1h437" depart="6115.00" from="B11B10" to="B1B0"/>
    <trip id="1h438" depart="6116.00" from="A7B7" to="E10E11"/>
    <trip id="1h439" depart="6116.00" from="L10K10" to="K7L7"/>
    <trip id="1h440" depart="6120.00" from="B11B10" to="K1L1"/>
    <trip id="1h441" depart="6121.00" from="A1B1" to="E10E11"/>
    <trip id="1h442" depart="6140.00" from="A7B7" to="D7D6"/>
    <trip id="1h443" depart="6147.00" from="K0K1" to="F6F7"/>
    <trip id="1h444" depart="6150.00" from="L4K4" to="G6H6"/>
    <trip id="1h445" depart="6154.00" from="B11B10" to="I6I7"/>
    <trip id="1h446" depart="6163.00" from="A1B1" to="K10K11"/>
    <trip id="1h447" depart="6170.00" from="K0K1" to="B1B0"/>
    <trip id="1h448" depart="6185.00" from="E0E1" to="B10A10"/>
    <trip id="1h449" depart="6190.00" from="L4K4" to="K10K11"/>
    <trip id="1h450" depart="6191.00" from="I2I3" to="H1H0"/>
    <trip id="1h451" depart="6206.00" from="A1B1" to="E10E11"/>
    <trip id="1h452" depart="6211.00" from="A1B1" to="B4A4"/>
    <trip id="1h453" depart="6215.00" from="B8A8" to="B10A10"/>
    <trip id="1h454" depart="6216.00" from="K0K1" to="K1L1"/>
    <trip id="1h455" depart="6219.00" from="L4K4" to="B4A4"/>
    <trip id="1h456" depart="6220.00" from="A7B7" to="K10K11"/>
    <trip id="1h457" depart="6223.00" from="I8I9" to="E10E11"/>
    <trip id="1h458" depart="6236.00" from="L10K10" to="H1H0"/>
    <trip id="1h459" depart="6246.00" from="B11B10" to="B4A4"/>
    <trip id="1h460" depart="6254.00" from="H5G5" to="D4C4"/>
    <trip id="1h461" depart="6261.00" from="H2H1" to="K1L1"/>
    <trip id="1h462" depart="6264.00" from="E0E1" to="gneE5"/>
    <trip id="1h463" depart="6264.00" from="L4K4" to="J8I8"/>
    <trip id="1h464" depart="6269.00" from="A7B7" to="B10A10"/>
    <trip id="1h465" depart="6275.00" from="K0K1" to="E9D9"/>
    <trip id="1h466" depart="6281.00" from="G9H9" to="B4A4"/>
    <trip id="1h467" depart="6286.00" from="A1B1" to="B4A4"/>