<?xml version="1.0" encoding="UTF-8"?>
<!-- generated on 2020-12-09 03:21:04.132584 by randomTrips.py v1_7_0+0000-714814baed
  options: -n .\data/grid01-bcn_50.net.xml <doubleminus>prefix=22h <doubleminus>fringe-factor 100 -b 79200 -e 82800 -p0.6994365649893142 <doubleminus>binomial 10 -odata/random/random_h_22-bcn_50.trips.rou.xml <doubleminus>edge-permission=passenger
-->
<routes xmlns:xsi="http://www.w3.org/2001/XMLSchema-instance" xsi:noNamespaceSchemaLocation="http://sumo.dlr.de/xsd/routes_file.xsd">
    <trip id="22h0" depart="79200.00" from="B11B10" to="B4A4"/>
    <trip id="22h1" depart="79200.00" from="E0E1" to="B10A10"/>
    <trip id="22h2" depart="79200.00" from="A9B9" to="I8I9"/>
    <trip id="22h3" depart="79201.00" from="L10K10" to="K10K11"/>
    <trip id="22h4" depart="79201.00" from="A1B1" to="K1L1"/>
    <trip id="22h5" depart="79203.00" from="B11B10" to="B4A4"/>
    <trip id="22h6" depart="79203.00" from="B11B10" to="B10A10"/>
    <trip id="22h7" depart="79205.00" from="C0C1" to="B4A4"/>
    <trip id="22h8" depart="79207.00" from="A1B1" to="B1B0"/>
    <trip id="22h9" depart="79207.00" from="E0E1" to="gneE6"/>
    <trip id="22h10" depart="79208.00" from="K0K1" to="K10K11"/>
    <trip id="22h11" depart="79208.00" from="E0E1" to="E10E11"/>
    <trip id="22h12" depart="79210.00" from="C4B4" to="B10A10"/>
    <trip id="22h13" depart="79210.00" from="L10K10" to="K7L7"/>
    <trip id="22h14" depart="79210.00" from="F5E5" to="B10A10"/>
    <trip id="22h15" depart="79210.00" from="F10E10" to="H1H0"/>
    <trip id="22h16" depart="79212.00" from="B11B10" to="D1D0"/>
    <trip id="22h17" depart="79212.00" from="H9H8" to="B4A4"/>
    <trip id="22h18" depart="79212.00" from="B11B10" to="J7K7"/>
    <trip id="22h19" depart="79213.00" from="L4K4" to="H1H0"/>
    <trip id="22h20" depart="79213.00" from="E0E1" to="E10E11"/>
    <trip id="22h21" depart="79214.00" from="E0E1" to="D1D2"/>
    <trip id="22h22" depart="79215.00" from="gneE9" to="K1L1"/>
    <trip id="22h23" depart="79216.00" from="E0E1" to="L2K2"/>
    <trip id="22h24" depart="79217.00" from="H11H10" to="G3H3"/>
    <trip id="22h25" depart="79218.00" from="A7B7" to="H1H0"/>
    <trip id="22h26" depart="79218.00" from="L4K4" to="B4A4"/>
    <trip id="22h27" depart="79219.00" from="E2E3" to="gneE8"/>
    <trip id="22h28" depart="79220.00" from="B11B10" to="B4A4"/>
    <trip id="22h29" depart="79221.00" from="L10K10" to="B4A4"/>
    <trip id="22h30" depart="79221.00" from="A7B7" to="B1B0"/>
    <trip id="22h31" depart="79222.00" from="E0E1" to="B4A4"/>
    <trip id="22h32" depart="79222.00" from="K0K1" to="I2I1"/>
    <trip id="22h33" depart="79223.00" from="A1B1" to="K7L7"/>
    <trip id="22h34" depart="79223.00" from="B6B5" to="K7L7"/>
    <trip id="22h35" depart="79224.00" from="K5K6" to="K7L7"/>
    <trip id="22h36" depart="79225.00" from="K0K1" to="C8C7"/>
    <trip id="22h37" depart="79225.00" from="L10K10" to="K1L1"/>
    <trip id="22h38" depart="79226.00" from="A7B7" to="C5D5"/>
    <trip id="22h39" depart="79227.00" from="L4K4" to="B1B0"/>
    <trip id="22h40" depart="79227.00" from="E0E1" to="K10K11"/>
    <trip id="22h41" depart="79228.00" from="L4K4" to="H1H0"/>
    <trip id="22h42" depart="79229.00" from="J5K5" to="C6C7"/>
    <trip id="22h43" depart="79230.00" from="E0E1" to="K7L7"/>
    <trip id="22h44" depart="79230.00" from="B11B10" to="E10E11"/>
    <trip id="22h45" depart="79231.00" from="H10G10" to="I10H10"/>
    <trip id="22h46" depart="79232.00" from="B11B10" to="F10E10"/>
    <trip id="22h47" depart="79232.00" from="E0E1" to="H8H7"/>
    <trip id="22h48" depart="79233.00" from="K0K1" to="K10K11"/>
    <trip id="22h49" depart="79233.00" from="E0E1" to="B1B0"/>
    <trip id="22h50" depart="79233.00" from="B11B10" to="K1L1"/>
    <trip id="22h51" depart="79235.00" from="B11B10" to="B4A4"/>
    <trip id="22h52" depart="79236.00" from="B11B10" to="K10K11"/>
    <trip id="22h53" depart="79236.00" from="E0E1" to="H1H0"/>
    <trip id="22h54" depart="79237.00" from="D7E7" to="K10K11"/>
    <trip id="22h55" depart="79238.00" from="D10C10" to="K10K11"/>
    <trip id="22h56" depart="79238.00" from="H5G5" to="B10A10"/>
    <trip id="22h57" depart="79239.00" from="I4I5" to="B1B0"/>
    <trip id="22h58" depart="79239.00" from="E0E1" to="B4A4"/>
    <trip id="22h59" depart="79239.00" from="A1B1" to="H1H0"/>
    <trip id="22h60" depart="79240.00" from="A7B7" to="B1B0"/>
    <trip id="22h61" depart="79241.00" from="L10K10" to="K7L7"/>
    <trip id="22h62" depart="79241.00" from="A1B1" to="B8A8"/>
    <trip id="22h63" depart="79242.00" from="K0K1" to="H7I7"/>
    <trip id="22h64" depart="79242.00" from="K10J10" to="K1L1"/>
    <trip id="22h65" depart="79242.00" from="L4K4" to="K1L1"/>
    <trip id="22h66" depart="79243.00" from="L4K4" to="I10I9"/>
    <trip id="22h67" depart="79244.00" from="L10K10" to="B4A4"/>
    <trip id="22h68" depart="79245.00" from="L10K10" to="B1B0"/>
    <trip id="22h69" depart="79246.00" from="L4K4" to="B10A10"/>
    <trip id="22h70" depart="79246.00" from="B11B10" to="K10K11"/>
    <trip id="22h71" depart="79247.00" from="A7B7" to="B1B0"/>
    <trip id="22h72" depart="79248.00" from="A7B7" to="B4A4"/>
    <trip id="22h73" depart="79249.00" from="H11H10" to="B4A4"/>
    <trip id="22h74" depart="79249.00" from="L10K10" to="F8E8"/>
    <trip id="22h75" depart="79250.00" from="L4K4" to="F1G1"/>
    <trip id="22h76" depart="79250.00" from="H8H7" to="B10A10"/>
    <trip id="22h77" depart="79250.00" from="K0K1" to="H1H0"/>
    <trip id="22h78" depart="79252.00" from="A1B1" to="E10E11"/>
    <trip id="22h79" depart="79254.00" from="A7B7" to="B5C5"/>
    <trip id="22h80" depart="79254.00" from="K0K1" to="K10K11"/>
    <trip id="22h81" depart="79255.00" from="A1B1" to="E10E11"/>
    <trip id="22h82" depart="79255.00" from="L4K4" to="K1L1"/>
    <trip id="22h83" depart="79256.00" from="K0K1" to="E9D9"/>
    <trip id="22h84" depart="79256.00" from="D6C6" to="C8C9"/>
    <trip id="22h85" depart="79259.00" from="L4K4" to="H1H0"/>
    <trip id="22h86" depart="79260.00" from="gneE2" to="K7L7"/>
    <trip id="22h87" depart="79260.00" from="L10K10" to="G1H1"/>
    <trip id="22h88" depart="79264.00" from="K0K1" to="K10K11"/>
    <trip id="22h89" depart="79264.00" from="G3H3" to="H1H0"/>
    <trip id="22h90" depart="79267.00" from="A1B1" to="H9H8"/>
    <trip id="22h91" depart="79267.00" from="I10H10" to="K2K3"/>
    <trip id="22h92" depart="79268.00" from="L10K10" to="B4A4"/>
    <trip id="22h93" depart="79268.00" from="L10K10" to="H3H2"/>
    <trip id="22h94" depart="79269.00" from="L10K10" to="K7L7"/>
    <trip id="22h95" depart="79271.00" from="H11H10" to="G1G0"/>
    <trip id="22h96" depart="79273.00" from="B11B10" to="K10K11"/>
    <trip id="22h97" depart="79273.00" from="H11H10" to="K7L7"/>
    <trip id="22h98" depart="79274.00" from="L4K4" to="B1B0"/>
    <trip id="22h99" depart="79275.00" from="H11H10" to="E10E11"/>
    <trip id="22h100" depart="79276.00" from="B11B10" to="B10A10"/>
    <trip id="22h101" depart="79276.00" from="L10K10" to="K7L7"/>
    <trip id="22h102" depart="79277.00" from="L4K4" to="B4B3"/>
    <trip id="22h103" depart="79277.00" from="L2K2" to="B1B0"/>
    <trip id="22h104" depart="79278.00" from="F7G7" to="E10E11"/>
    <trip id="22h105" depart="79278.00" from="E0E1" to="E10E11"/>
    <trip id="22h106" depart="79278.00" from="K0K1" to="H1H0"/>
    <trip id="22h107" depart="79279.00" from="L10K10" to="E10E11"/>
    <trip id="22h108" depart="79279.00" from="K9K10" to="B4A4"/>
    <trip id="22h109" depart="79279.00" from="H11H10" to="B10A10"/>
    <trip id="22h110" depart="79280.00" from="L10K10" to="B1B0"/>
    <trip id="22h111" depart="79280.00" from="B11B10" to="B1B0"/>
    <trip id="22h112" depart="79280.00" from="A1B1" to="K1L1"/>
    <trip id="22h113" depart="79281.00" from="K0K1" to="H1H0"/>
    <trip id="22h114" depart="79281.00" from="G4F4" to="K7L7"/>
    <trip id="22h115" depart="79281.00" from="K6L6" to="K1L1"/>
    <trip id="22h116" depart="79282.00" from="F2E2" to="E10E11"/>
    <trip id="22h117" depart="79282.00" from="A1B1" to="H1H0"/>
    <trip id="22h118" depart="79282.00" from="B11B10" to="I10H10"/>
    <trip id="22h119" depart="79283.00" from="K0K1" to="K1L1"/>
    <trip id="22h120" depart="79284.00" from="E0E1" to="J6I6"/>
    <trip id="22h121" depart="79284.00" from="L10K10" to="B10A10"/>
    <trip id="22h122" depart="79285.00" from="K0K1" to="K1L1"/>
    <trip id="22h123" depart="79285.00" from="D8E8" to="J6I6"/>
    <trip id="22h124" depart="79286.00" from="L10K10" to="E10E11"/>
    <trip id="22h125" depart="79287.00" from="L4K4" to="K1L1"/>
    <trip id="22h126" depart="79288.00" from="L10K10" to="H1H0"/>
    <trip id="22h127" depart="79288.00" from="I10H10" to="B10A10"/>
    <trip id="22h128" depart="79289.00" from="A1B1" to="B1B0"/>
    <trip id="22h129" depart="79290.00" from="E0E1" to="B4A4"/>
    <trip id="22h130" depart="79290.00" from="E0E1" to="H1H0"/>
    <trip id="22h131" depart="79290.00" from="B2B1" to="B4A4"/>
    <trip id="22h132" depart="79290.00" from="B11B10" to="C5D5"/>
    <trip id="22h133" depart="79290.00" from="K0K1" to="B1B0"/>
    <trip id="22h134" depart="79291.00" from="L10K10" to="B10A10"/>
    <trip id="22h135" depart="79291.00" from="L4K4" to="K1L1"/>
    <trip id="22h136" depart="79292.00" from="A1B1" to="C4B4"/>
    <trip id="22h137" depart="79292.00" from="L10K10" to="B4A4"/>
    <trip id="22h138" depart="79293.00" from="G7H7" to="K7L7"/>
    <trip id="22h139" depart="79295.00" from="E0E1" to="B4A4"/>
    <trip id="22h140" depart="79296.00" from="G6H6" to="B7C7"/>
    <trip id="22h141" depart="79296.00" from="L10K10" to="B10A10"/>
    <trip id="22h142" depart="79297.00" from="A7B7" to="K7L7"/>
    <trip id="22h143" depart="79299.00" from="A1B1" to="K10K11"/>
    <trip id="22h144" depart="79300.00" from="D7D6" to="K7L7"/>
    <trip id="22h145" depart="79302.00" from="A1B1" to="K1L1"/>
    <trip id="22h146" depart="79302.00" from="K0K1" to="K1L1"/>
    <trip id="22h147" depart="79302.00" from="D11D10" to="K10K11"/>
    <trip id="22h148" depart="79302.00" from="E0E1" to="B1B0"/>
    <trip id="22h149" depart="79305.00" from="B11B10" to="I4H4"/>
    <trip id="22h150" depart="79306.00" from="L10K10" to="K1L1"/>
    <trip id="22h151" depart="79307.00" from="A1B1" to="G3H3"/>
    <trip id="22h152" depart="79307.00" from="L4K4" to="K1L1"/>
    <trip id="22h153" depart="79307.00" from="B11B10" to="K1L1"/>
    <trip id="22h154" depart="79308.00" from="K0K1" to="E10E11"/>
    <trip id="22h155" depart="79308.00" from="A1B1" to="B4A4"/>
    <trip id="22h156" depart="79308.00" from="B11B10" to="B4A4"/>
    <trip id="22h157" depart="79308.00" from="E0E1" to="K1L1"/>
    <trip id="22h158" depart="79308.00" from="L4K4" to="H1H0"/>
    <trip id="22h159" depart="79309.00" from="H10G10" to="B4A4"/>
    <trip id="22h160" depart="79309.00" from="L4K4" to="B10A10"/>
    <trip id="22h161" depart="79310.00" from="L10K10" to="D4C4"/>
    <trip id="22h162" depart="79311.00" from="H11H10" to="K1L1"/>
    <trip id="22h163" depart="79312.00" from="K3K4" to="E2E3"/>
    <trip id="22h164" depart="79312.00" from="A9B9" to="B10A10"/>
    <trip id="22h165" depart="79313.00" from="E0E1" to="K7L7"/>
    <trip id="22h166" depart="79314.00" from="H11H10" to="K1L1"/>
    <trip id="22h167" depart="79314.00" from="J3J4" to="B5B4"/>
    <trip id="22h168" depart="79315.00" from="L10K10" to="D8C8"/>
    <trip id="22h169" depart="79315.00" from="I2I1" to="E10E11"/>
    <trip id="22h170" depart="79316.00" from="H11H10" to="K1L1"/>
    <trip id="22h171" depart="79316.00" from="A1B1" to="K1L1"/>
    <trip id="22h172" depart="79317.00" from="K0K1" to="G2F2"/>
    <trip id="22h173" depart="79318.00" from="L10K10" to="E10E11"/>
    <trip id="22h174" depart="79319.00" from="K0K1" to="K1L1"/>
    <trip id="22h175" depart="79319.00" from="H11H10" to="K7L7"/>
    <trip id="22h176" depart="79320.00" from="B11B10" to="B1B0"/>
    <trip id="22h177" depart="79320.00" from="H11H10" to="E10E11"/>
    <trip id="22h178" depart="79320.00" from="B7B6" to="gneE9"/>
    <trip id="22h179" depart="79321.00" from="L4K4" to="I4I3"/>
    <trip id="22h180" depart="79322.00" from="A7B7" to="B1B0"/>
    <trip id="22h181" depart="79323.00" from="B2C2" to="H1H0"/>
    <trip id="22h182" depart="79324.00" from="A1B1" to="I4H4"/>
    <trip id="22h183" depart="79325.00" from="A1B1" to="E10E11"/>
    <trip id="22h184" depart="79326.00" from="E0E1" to="H1H0"/>
    <trip id="22h185" depart="79327.00" from="B11B10" to="E10E11"/>
    <trip id="22h186" depart="79328.00" from="L4K4" to="G5G6"/>
    <trip id="22h187" depart="79328.00" from="G10F10" to="K7K8"/>
    <trip id="22h188" depart="79330.00" from="G5G4" to="K10K11"/>
    <trip id="22h189" depart="79330.00" from="L4K4" to="E10E11"/>
    <trip id="22h190" depart="79331.00" from="A7B7" to="C8C9"/>
    <trip id="22h191" depart="79333.00" from="F10E10" to="K7L7"/>
    <trip id="22h192" depart="79335.00" from="L4K4" to="B1B0"/>
    <trip id="22h193" depart="79335.00" from="B8C8" to="B1B0"/>
    <trip id="22h194" depart="79335.00" from="A7B7" to="B4A4"/>
    <trip id="22h195" depart="79338.00" from="K0K1" to="E10E11"/>
    <trip id="22h196" depart="79340.00" from="H1I1" to="H1H0"/>
    <trip id="22h197" depart="79340.00" from="E0E1" to="K10K11"/>
    <trip id="22h198" depart="79340.00" from="K0K1" to="B10A10"/>
    <trip id="22h199" depart="79342.00" from="H11H10" to="H1H0"/>
    <trip id="22h200" depart="79343.00" from="H11H10" to="B1B0"/>
    <trip id="22h201" depart="79344.00" from="A7B7" to="E3D3"/>
    <trip id="22h202" depart="79345.00" from="J7K7" to="B1B0"/>
    <trip id="22h203" depart="79345.00" from="C3D3" to="B4A4"/>
    <trip id="22h204" depart="79346.00" from="J11J10" to="K10K11"/>
    <trip id="22h205" depart="79346.00" from="A7B7" to="B5B4"/>
    <trip id="22h206" depart="79347.00" from="L4K4" to="B4A4"/>
    <trip id="22h207" depart="79347.00" from="A7B7" to="K10K11"/>
    <trip id="22h208" depart="79348.00" from="E0E1" to="K10K11"/>
    <trip id="22h209" depart="79348.00" from="H11H10" to="B10A10"/>
    <trip id="22h210" depart="79349.00" from="B11B10" to="H1H0"/>
    <trip id="22h211" depart="79349.00" from="G7H7" to="K1L1"/>
    <trip id="22h212" depart="79350.00" from="E4D4" to="K1L1"/>
    <trip id="22h213" depart="79350.00" from="D4C4" to="B10A10"/>
    <trip id="22h214" depart="79350.00" from="L4K4" to="B10A10"/>
    <trip id="22h215" depart="79353.00" from="A1B1" to="B4A4"/>
    <trip id="22h216" depart="79354.00" from="L10K10" to="E10E11"/>
    <trip id="22h217" depart="79354.00" from="B11B10" to="B10A10"/>
    <trip id="22h218" depart="79354.00" from="H11H10" to="K10K11"/>
    <trip id="22h219" depart="79354.00" from="K0K1" to="E10E11"/>
    <trip id="22h220" depart="79355.00" from="G4F4" to="B4A4"/>
    <trip id="22h221" depart="79356.00" from="L4K4" to="K6J6"/>
    <trip id="22h222" depart="79358.00" from="B11B10" to="B2B1"/>
    <trip id="22h223" depart="79358.00" from="K0K1" to="B1B0"/>
    <trip id="22h224" depart="79360.00" from="L4K4" to="K7L7"/>
    <trip id="22h225" depart="79360.00" from="gneE9" to="F2E2"/>
    <trip id="22h226" depart="79361.00" from="L4K4" to="E8E9"/>
    <trip id="22h227" depart="79364.00" from="A1B1" to="K1L1"/>
    <trip id="22h228" depart="79365.00" from="G5G6" to="E10E11"/>
    <trip id="22h229" depart="79366.00" from="H11H10" to="B10A10"/>
    <trip id="22h230" depart="79366.00" from="L10K10" to="K10J10"/>
    <trip id="22h231" depart="79366.00" from="A1B1" to="B1B0"/>
    <trip id="22h232" depart="79368.00" from="E0E1" to="H1H0"/>
    <trip id="22h233" depart="79368.00" from="A1B1" to="B1B0"/>
    <trip id="22h234" depart="79369.00" from="H11H10" to="B10A10"/>
    <trip id="22h235" depart="79369.00" from="A1B1" to="K7L7"/>
    <trip id="22h236" depart="79370.00" from="L4K4" to="B9B8"/>
    <trip id="22h237" depart="79370.00" from="A7B7" to="B4A4"/>
    <trip id="22h238" depart="79371.00" from="gneE0" to="K10K11"/>
    <trip id="22h239" depart="79371.00" from="E0E1" to="K1L1"/>
    <trip id="22h240" depart="79372.00" from="B11B10" to="gneE2"/>
    <trip id="22h241" depart="79372.00" from="H2I2" to="K1L1"/>
    <trip id="22h242" depart="79373.00" from="A7B7" to="K10K11"/>
    <trip id="22h243" depart="79373.00" from="A1B1" to="B6B5"/>
    <trip id="22h244" depart="79373.00" from="A7B7" to="E10E11"/>
    <trip id="22h245" depart="79374.00" from="D8E8" to="B10A10"/>
    <trip id="22h246" depart="79374.00" from="L4K4" to="K7L7"/>
    <trip id="22h247" depart="79375.00" from="B2A2" to="F9G9"/>
    <trip id="22h248" depart="79375.00" from="E0E1" to="E10E11"/>
    <trip id="22h249" depart="79375.00" from="B11B10" to="B4A4"/>
    <trip id="22h250" depart="79375.00" from="B4B3" to="K7L7"/>
    <trip id="22h251" depart="79376.00" from="C2C1" to="K7L7"/>
    <trip id="22h252" depart="79378.00" from="H11H10" to="H1H0"/>
    <trip id="22h253" depart="79379.00" from="gneE10" to="F2E2"/>
    <trip id="22h254" depart="79381.00" from="K0K1" to="J2I2"/>
    <trip id="22h255" depart="79381.00" from="L4K4" to="K10K11"/>
    <trip id="22h256" depart="79381.00" from="B11B10" to="G7H7"/>
    <trip id="22h257" depart="79382.00" from="A7B7" to="E10E11"/>
    <trip id="22h258" depart="79383.00" from="L4K4" to="B1B0"/>
    <trip id="22h259" depart="79384.00" from="L10K10" to="I7J7"/>
    <trip id="22h260" depart="79385.00" from="H11H10" to="B1B0"/>
    <trip id="22h261" depart="79386.00" from="A7B7" to="K1L1"/>
    <trip id="22h262" depart="79388.00" from="A7B7" to="B1B0"/>
    <trip id="22h263" depart="79388.00" from="E0E1" to="B1B0"/>
    <trip id="22h264" depart="79389.00" from="B9B8" to="E10E11"/>
    <trip id="22h265" depart="79389.00" from="E0E1" to="B10A10"/>
    <trip id="22h266" depart="79389.00" from="L10K10" to="K7L7"/>
    <trip id="22h267" depart="79390.00" from="A1B1" to="K10K11"/>
    <trip id="22h268" depart="79391.00" from="A7B7" to="K1L1"/>
    <trip id="22h269" depart="79391.00" from="K0K1" to="H1H0"/>
    <trip id="22h270" depart="79391.00" from="L10K10" to="K10K11"/>
    <trip id="22h271" depart="79393.00" from="B11B10" to="B4A4"/>
    <trip id="22h272" depart="79393.00" from="D7D8" to="B4A4"/>
    <trip id="22h273" depart="79394.00" from="L4K4" to="K1L1"/>
    <trip id="22h274" depart="79394.00" from="L10K10" to="B4A4"/>
    <trip id="22h275" depart="79395.00" from="H10G10" to="B4A4"/>
    <trip id="22h276" depart="79396.00" from="K2K3" to="K10K11"/>
    <trip id="22h277" depart="79396.00" from="H11H10" to="B4A4"/>
    <trip id="22h278" depart="79398.00" from="A6B6" to="K1L1"/>
    <trip id="22h279" depart="79398.00" from="L10K10" to="E10E11"/>
    <trip id="22h280" depart="79398.00" from="L4K4" to="B2A2"/>
    <trip id="22h281" depart="79398.00" from="I8I9" to="B1B0"/>
    <trip id="22h282" depart="79399.00" from="F10F9" to="B1B0"/>
    <trip id="22h283" depart="79400.00" from="K0K1" to="K1L1"/>
    <trip id="22h284" depart="79400.00" from="A1B1" to="E10E11"/>
    <trip id="22h285" depart="79400.00" from="B8C8" to="K6L6"/>
    <trip id="22h286" depart="79400.00" from="K1K2" to="K10K11"/>
    <trip id="22h287" depart="79400.00" from="gneE2" to="B1B0"/>
    <trip id="22h288" depart="79401.00" from="I8I9" to="E10E11"/>
    <trip id="22h289" depart="79401.00" from="A7B7" to="K10K11"/>
    <trip id="22h290" depart="79402.00" from="B11B10" to="B10A10"/>
    <trip id="22h291" depart="79403.00" from="L4K4" to="K7L7"/>
    <trip id="22h292" depart="79403.00" from="G2F2" to="H1H0"/>
    <trip id="22h293" depart="79404.00" from="L10K10" to="H1H0"/>
    <trip id="22h294" depart="79404.00" from="A1B1" to="B4A4"/>
    <trip id="22h295" depart="79405.00" from="A1B1" to="K1L1"/>
    <trip id="22h296" depart="79405.00" from="H11H10" to="H1I1"/>
    <trip id="22h297" depart="79406.00" from="K0K1" to="K10K11"/>
    <trip id="22h298" depart="79406.00" from="A1B1" to="E10E11"/>
    <trip id="22h299" depart="79407.00" from="K0K1" to="K10K11"/>
    <trip id="22h300" depart="79408.00" from="K6J6" to="B4A4"/>
    <trip id="22h301" depart="79408.00" from="L10K10" to="B4A4"/>
    <trip id="22h302" depart="79408.00" from="K0K1" to="H1H0"/>
    <trip id="22h303" depart="79408.00" from="E10D10" to="E10E11"/>
    <trip id="22h304" depart="79409.00" from="H11H10" to="K10K11"/>
    <trip id="22h305" depart="79409.00" from="L10K10" to="B4A4"/>
    <trip id="22h306" depart="79410.00" from="E0E1" to="G3H3"/>
    <trip id="22h307" depart="79411.00" from="E6D6" to="B4A4"/>
    <trip id="22h308" depart="79411.00" from="B10B9" to="H1H0"/>
    <trip id="22h309" depart="79413.00" from="E0E1" to="B4A4"/>
    <trip id="22h310" depart="79413.00" from="J1K1" to="K1L1"/>
    <trip id="22h311" depart="79413.00" from="H11H10" to="B4A4"/>
    <trip id="22h312" depart="79413.00" from="gneE6" to="K10K11"/>
    <trip id="22h313" depart="79414.00" from="L4K4" to="K7L7"/>
    <trip id="22h314" depart="79414.00" from="A1B1" to="B1B0"/>
    <trip id="22h315" depart="79414.00" from="H11H10" to="E10E11"/>
    <trip id="22h316" depart="79415.00" from="B11B10" to="K1L1"/>
    <trip id="22h317" depart="79416.00" from="A7B7" to="K10K11"/>
    <trip id="22h318" depart="79417.00" from="L10K10" to="C5D5"/>
    <trip id="22h319" depart="79417.00" from="B11B10" to="D9D8"/>
    <trip id="22h320" depart="79417.00" from="E0E1" to="E10E11"/>
    <trip id="22h321" depart="79418.00" from="A1B1" to="K1L1"/>
    <trip id="22h322" depart="79418.00" from="L10K10" to="E10E11"/>
    <trip id="22h323" depart="79419.00" from="A1B1" to="K7L7"/>
    <trip id="22h324" depart="79419.00" from="L4K4" to="K1L1"/>
    <trip id="22h325" depart="79419.00" from="E3F3" to="B1B0"/>
    <trip id="22h326" depart="79419.00" from="K0K1" to="B1B0"/>
    <trip id="22h327" depart="79420.00" from="H3H2" to="B4A4"/>
    <trip id="22h328" depart="79420.00" from="B11B10" to="B1B0"/>
    <trip id="22h329" depart="79422.00" from="gneE11" to="H1H0"/>
    <trip id="22h330" depart="79423.00" from="J1K1" to="B4A4"/>
    <trip id="22h331" depart="79423.00" from="gneE6" to="B4A4"/>
    <trip id="22h332" depart="79424.00" from="K0K1" to="K7L7"/>
    <trip id="22h333" depart="79425.00" from="B11B10" to="B4A4"/>
    <trip id="22h334" depart="79425.00" from="L4K4" to="B1C1"/>
    <trip id="22h335" depart="79425.00" from="K0K1" to="K7L7"/>
    <trip id="22h336" depart="79426.00" from="H11H10" to="K7L7"/>
    <trip id="22h337" depart="79426.00" from="B2B1" to="B1B0"/>
    <trip id="22h338" depart="79428.00" from="K0K1" to="K7L7"/>
    <trip id="22h339" depart="79428.00" from="H11H10" to="K7L7"/>
    <trip id="22h340" depart="79429.00" from="K0K1" to="B4A4"/>
    <trip id="22h341" depart="79429.00" from="K0K1" to="I3H3"/>
    <trip id="22h342" depart="79430.00" from="B11B10" to="B1B0"/>
    <trip id="22h343" depart="79430.00" from="E0E1" to="K10K11"/>
    <trip id="22h344" depart="79431.00" from="F2F1" to="K1L1"/>
    <trip id="22h345" depart="79431.00" from="L10K10" to="B4A4"/>
    <trip id="22h346" depart="79431.00" from="A7B7" to="E10E11"/>
    <trip id="22h347" depart="79432.00" from="H11H10" to="H1H0"/>
    <trip id="22h348" depart="79432.00" from="L4K4" to="B1B0"/>
    <trip id="22h349" depart="79432.00" from="B11B10" to="B1B0"/>
    <trip id="22h350" depart="79433.00" from="H11H10" to="K1L1"/>
    <trip id="22h351" depart="79434.00" from="A7B7" to="B4A4"/>
    <trip id="22h352" depart="79434.00" from="L10K10" to="B6B5"/>
    <trip id="22h353" depart="79434.00" from="H11H10" to="B1B0"/>
    <trip id="22h354" depart="79435.00" from="K0K1" to="J7J8"/>
    <trip id="22h355" depart="79435.00" from="D3D4" to="H1H0"/>
    <trip id="22h356" depart="79436.00" from="L4K4" to="K10K11"/>
    <trip id="22h357" depart="79437.00" from="K0K1" to="B1B0"/>
    <trip id="22h358" depart="79437.00" from="E0E1" to="gneE0"/>
    <trip id="22h359" depart="79438.00" from="E0E1" to="E10E11"/>
    <trip id="22h360" depart="79440.00" from="B11B10" to="H1H0"/>
    <trip id="22h361" depart="79440.00" from="B11B10" to="B1B0"/>
    <trip id="22h362" depart="79441.00" from="L4K4" to="C7D7"/>
    <trip id="22h363" depart="79441.00" from="L10K10" to="B4A4"/>
    <trip id="22h364" depart="79441.00" from="L10K10" to="B1B0"/>
    <trip id="22h365" depart="79443.00" from="L10K10" to="K6J6"/>
    <trip id="22h366" depart="79443.00" from="A7B7" to="K1L1"/>
    <trip id="22h367" depart="79444.00" from="A1B1" to="E10E11"/>
    <trip id="22h368" depart="79446.00" from="K5K6" to="K10K11"/>
    <trip id="22h369" depart="79446.00" from="L4K4" to="I6I7"/>
    <trip id="22h370" depart="79447.00" from="B11B10" to="K1L1"/>
    <trip id="22h371" depart="79448.00" from="G8F8" to="J4I4"/>
    <trip id="22h372" depart="79448.00" from="A1B1" to="gneE0"/>
    <trip id="22h373" depart="79451.00" from="K0K1" to="H1H0"/>
    <trip id="22h374" depart="79452.00" from="A7B7" to="B4A4"/>
    <trip id="22h375" depart="79452.00" from="D9D10" to="K10K11"/>
    <trip id="22h376" depart="79454.00" from="L4K4" to="G2G3"/>
    <trip id="22h377" depart="79454.00" from="L10K10" to="B1B0"/>
    <trip id="22h378" depart="79455.00" from="B11B10" to="K10K11"/>
    <trip id="22h379" depart="79456.00" from="H11H10" to="I10H10"/>
    <trip id="22h380" depart="79456.00" from="A9B9" to="E10E11"/>
    <trip id="22h381" depart="79456.00" from="C3B3" to="K1L1"/>
    <trip id="22h382" depart="79457.00" from="E0E1" to="H1H0"/>
    <trip id="22h383" depart="79459.00" from="K0K1" to="H1H0"/>
    <trip id="22h384" depart="79459.00" from="L10K10" to="B4A4"/>
    <trip id="22h385" depart="79459.00" from="gneE4" to="J4I4"/>
    <trip id="22h386" depart="79460.00" from="K0K1" to="E10E11"/>
    <trip id="22h387" depart="79461.00" from="L10K10" to="B1B0"/>
    <trip id="22h388" depart="79461.00" from="A7B7" to="B1B0"/>
    <trip id="22h389" depart="79462.00" from="G1G0" to="B4A4"/>
    <trip id="22h390" depart="79462.00" from="J9J10" to="K7L7"/>
    <trip id="22h391" depart="79463.00" from="G8F8" to="K10K11"/>
    <trip id="22h392" depart="79463.00" from="B11B10" to="B4A4"/>
    <trip id="22h393" depart="79463.00" from="A7B7" to="B10A10"/>
    <trip id="22h394" depart="79464.00" from="K0K1" to="B10A10"/>
    <trip id="22h395" depart="79464.00" from="L10K10" to="B1B0"/>
    <trip id="22h396" depart="79465.00" from="K0K1" to="B10A10"/>
    <trip id="22h397" depart="79466.00" from="K0K1" to="K1L1"/>
    <trip id="22h398" depart="79466.00" from="L4K4" to="B1B0"/>
    <trip id="22h399" depart="79467.00" from="B11B10" to="B9B8"/>
    <trip id="22h400" depart="79468.00" from="J4I4" to="B4A4"/>
    <trip id="22h401" depart="79468.00" from="I4I5" to="B1B0"/>
    <trip id="22h402" depart="79469.00" from="F8F7" to="B4A4"/>
    <trip id="22h403" depart="79469.00" from="B11B10" to="I4I5"/>
    <trip id="22h404" depart="79470.00" from="G1G2" to="J10I10"/>
    <trip id="22h405" depart="79470.00" from="E0E1" to="H1H0"/>
    <trip id="22h406" depart="79470.00" from="A1B1" to="H1H0"/>
    <trip id="22h407" depart="79471.00" from="B11B10" to="E10E11"/>
    <trip id="22h408" depart="79471.00" from="K0K1" to="B4A4"/>
    <trip id="22h409" depart="79472.00" from="A7B7" to="B1B0"/>
    <trip id="22h410" depart="79472.00" from="H11H10" to="B1B0"/>
    <trip id="22h411" depart="79473.00" from="E0E1" to="K7L7"/>
    <trip id="22h412" depart="79474.00" from="G1H1" to="H1H0"/>
    <trip id="22h413" depart="79474.00" from="L4K4" to="K1L1"/>
    <trip id="22h414" depart="79475.00" from="E0E1" to="H1H0"/>
    <trip id="22h415" depart="79476.00" from="E0E1" to="K10K11"/>
    <trip id="22h416" depart="79478.00" from="D7E7" to="F3F2"/>
    <trip id="22h417" depart="79479.00" from="A7B7" to="J8I8"/>
    <trip id="22h418" depart="79480.00" from="L10K10" to="B1B0"/>
    <trip id="22h419" depart="79481.00" from="B11B10" to="H4G4"/>
    <trip id="22h420" depart="79483.00" from="H11H10" to="B4A4"/>
    <trip id="22h421" depart="79484.00" from="L4K4" to="H1I1"/>
    <trip id="22h422" depart="79485.00" from="G5G6" to="E10E11"/>
    <trip id="22h423" depart="79485.00" from="B11B10" to="B4A4"/>
    <trip id="22h424" depart="79486.00" from="J7K7" to="E10E11"/>
    <trip id="22h425" depart="79488.00" from="L4K4" to="B1B0"/>
    <trip id="22h426" depart="79488.00" from="A1B1" to="J8K8"/>
    <trip id="22h427" depart="79489.00" from="H11H10" to="K10K11"/>
    <trip id="22h428" depart="79490.00" from="A1B1" to="K1L1"/>
    <trip id="22h429" depart="79490.00" from="K0K1" to="H1H0"/>
    <trip id="22h430" depart="79491.00" from="L4K4" to="B1B0"/>
    <trip id="22h431" depart="79491.00" from="K0K1" to="E10E11"/>
    <trip id="22h432" depart="79492.00" from="E0E1" to="K1L1"/>
    <trip id="22h433" depart="79493.00" from="A1B1" to="H1H0"/>
    <trip id="22h434" depart="79495.00" from="A1B1" to="K10K11"/>
    <trip id="22h435" depart="79496.00" from="J1J0" to="B10A10"/>
    <trip id="22h436" depart="79497.00" from="B11B10" to="B4A4"/>
    <trip id="22h437" depart="79497.00" from="K0K1" to="K4K5"/>
    <trip id="22h438" depart="79498.00" from="H11H10" to="B4A4"/>
    <trip id="22h439" depart="79498.00" from="A1B1" to="B10A10"/>
    <trip id="22h440" depart="79498.00" from="H11H10" to="E10E11"/>
    <trip id="22h441" depart="79502.00" from="E0E1" to="B10A10"/>
    <trip id="22h442" depart="79502.00" from="L4K4" to="C4B4"/>
    <trip id="22h443" depart="79505.00" from="A7B7" to="B10A10"/>
    <trip id="22h444" depart="79505.00" from="B11B10" to="K1L1"/>
    <trip id="22h445" depart="79506.00" from="A1B1" to="H1H0"/>
    <trip id="22h446" depart="79506.00" from="H11H10" to="B10A10"/>
    <trip id="22h447" depart="79507.00" from="K0K1" to="J4I4"/>
    <trip id="22h448" depart="79507.00" from="E0E1" to="gneE2"/>
    <trip id="22h449" depart="79509.00" from="B11B10" to="K1L1"/>
    <trip id="22h450" depart="79509.00" from="F10F11" to="H1H0"/>
    <trip id="22h451" depart="79509.00" from="K7K8" to="G4F4"/>
    <trip id="22h452" depart="79509.00" from="F3G3" to="B1B0"/>