<?xml version="1.0" encoding="UTF-8"?>
<!-- generated on 2020-12-09 03:21:02.117736 by randomTrips.py v1_7_0+0000-714814baed
  options: -n .\data/grid01-bcn_50.net.xml <doubleminus>prefix=20h <doubleminus>fringe-factor 100 -b 72000 -e 75600 -p0.293733681462141 <doubleminus>binomial 10 -odata/random/random_h_20-bcn_50.trips.rou.xml <doubleminus>edge-permission=passenger
-->
<routes xmlns:xsi="http://www.w3.org/2001/XMLSchema-instance" xsi:noNamespaceSchemaLocation="http://sumo.dlr.de/xsd/routes_file.xsd">
    <trip id="20h0" depart="72000.00" from="B11B10" to="B4A4"/>
    <trip id="20h1" depart="72000.00" from="E0E1" to="B10A10"/>
    <trip id="20h2" depart="72000.00" from="G5G6" to="B10A10"/>
    <trip id="20h3" depart="72000.00" from="I8I9" to="H1H0"/>
    <trip id="20h4" depart="72000.00" from="H11H10" to="K1L1"/>
    <trip id="20h5" depart="72000.00" from="L10K10" to="K10K11"/>
    <trip id="20h6" depart="72001.00" from="A7B7" to="K7L7"/>
    <trip id="20h7" depart="72001.00" from="A1B1" to="B10A10"/>
    <trip id="20h8" depart="72002.00" from="B11B10" to="B4A4"/>
    <trip id="20h9" depart="72002.00" from="B11B10" to="B10A10"/>
    <trip id="20h10" depart="72002.00" from="I10I9" to="E10E11"/>
    <trip id="20h11" depart="72002.00" from="B11B10" to="K7L7"/>
    <trip id="20h12" depart="72003.00" from="K0K1" to="B1B0"/>
    <trip id="20h13" depart="72004.00" from="A1B1" to="C0C1"/>
    <trip id="20h14" depart="72004.00" from="B11B10" to="K7L7"/>
    <trip id="20h15" depart="72004.00" from="J1J0" to="E10E11"/>
    <trip id="20h16" depart="72004.00" from="B11B10" to="H1H0"/>
    <trip id="20h17" depart="72004.00" from="H11H10" to="K7L7"/>
    <trip id="20h18" depart="72004.00" from="gneE7" to="G7G8"/>
    <trip id="20h19" depart="72005.00" from="A1B1" to="B1B0"/>
    <trip id="20h20" depart="72005.00" from="E0E1" to="gneE6"/>
    <trip id="20h21" depart="72005.00" from="K0K1" to="K10K11"/>
    <trip id="20h22" depart="72006.00" from="I4H4" to="B1B0"/>
    <trip id="20h23" depart="72006.00" from="G2G3" to="B1B0"/>
    <trip id="20h24" depart="72006.00" from="I3H3" to="H1H0"/>
    <trip id="20h25" depart="72006.00" from="K0K1" to="H1H0"/>
    <trip id="20h26" depart="72007.00" from="C4B4" to="B10A10"/>
    <trip id="20h27" depart="72007.00" from="A1B1" to="K5K6"/>
    <trip id="20h28" depart="72007.00" from="F5E5" to="B10A10"/>
    <trip id="20h29" depart="72008.00" from="F10E10" to="H1H0"/>
    <trip id="20h30" depart="72008.00" from="L10K10" to="E10E11"/>
    <trip id="20h31" depart="72008.00" from="H11H10" to="K10K11"/>
    <trip id="20h32" depart="72008.00" from="B8A8" to="gneE5"/>
    <trip id="20h33" depart="72008.00" from="B11B10" to="D1D0"/>
    <trip id="20h34" depart="72009.00" from="B11B10" to="B10A10"/>
    <trip id="20h35" depart="72009.00" from="L4K4" to="K1L1"/>
    <trip id="20h36" depart="72009.00" from="B11B10" to="J7K7"/>
    <trip id="20h37" depart="72009.00" from="A7B7" to="K7L7"/>
    <trip id="20h38" depart="72009.00" from="A1B1" to="E10E11"/>
    <trip id="20h39" depart="72010.00" from="E0E1" to="D1D2"/>
    <trip id="20h40" depart="72010.00" from="A7B7" to="E10E11"/>
    <trip id="20h41" depart="72010.00" from="B11B10" to="K7L7"/>
    <trip id="20h42" depart="72011.00" from="gneE9" to="K1L1"/>
    <trip id="20h43" depart="72011.00" from="F5E5" to="B4A4"/>
    <trip id="20h44" depart="72011.00" from="E0E1" to="L2K2"/>
    <trip id="20h45" depart="72012.00" from="K7K8" to="E10E11"/>
    <trip id="20h46" depart="72012.00" from="B11B10" to="K7L7"/>
    <trip id="20h47" depart="72013.00" from="H11H10" to="G3H3"/>
    <trip id="20h48" depart="72013.00" from="L4K4" to="B10A10"/>
    <trip id="20h49" depart="72013.00" from="H11H10" to="K10K11"/>
    <trip id="20h50" depart="72013.00" from="A7B7" to="K7L7"/>
    <trip id="20h51" depart="72013.00" from="H11H10" to="H3H2"/>
    <trip id="20h52" depart="72014.00" from="K0K1" to="B4A4"/>
    <trip id="20h53" depart="72014.00" from="C10B10" to="K10K11"/>
    <trip id="20h54" depart="72014.00" from="E2E3" to="gneE8"/>
    <trip id="20h55" depart="72014.00" from="B11B10" to="B4A4"/>
    <trip id="20h56" depart="72015.00" from="L10K10" to="K10K11"/>
    <trip id="20h57" depart="72015.00" from="L10K10" to="B4A4"/>
    <trip id="20h58" depart="72015.00" from="A7B7" to="B1B0"/>
    <trip id="20h59" depart="72016.00" from="H11H10" to="K10K11"/>
    <trip id="20h60" depart="72016.00" from="I10I11" to="B4A4"/>
    <trip id="20h61" depart="72016.00" from="E0E1" to="B4A4"/>
    <trip id="20h62" depart="72016.00" from="K0K1" to="I2I1"/>
    <trip id="20h63" depart="72016.00" from="K0K1" to="H1H0"/>
    <trip id="20h64" depart="72016.00" from="A1B1" to="K7L7"/>
    <trip id="20h65" depart="72017.00" from="A7B7" to="B6B5"/>
    <trip id="20h66" depart="72017.00" from="B11B10" to="B1B0"/>
    <trip id="20h67" depart="72018.00" from="L4K4" to="K1L1"/>
    <trip id="20h68" depart="72018.00" from="K0K1" to="C8C7"/>
    <trip id="20h69" depart="72019.00" from="K9K10" to="B1B0"/>
    <trip id="20h70" depart="72019.00" from="L10K10" to="E3E4"/>
    <trip id="20h71" depart="72019.00" from="L10K10" to="B4A4"/>
    <trip id="20h72" depart="72019.00" from="A7B7" to="C5D5"/>
    <trip id="20h73" depart="72020.00" from="I4H4" to="E10E11"/>
    <trip id="20h74" depart="72020.00" from="L4K4" to="B1B0"/>
    <trip id="20h75" depart="72020.00" from="A7B7" to="E10E11"/>
    <trip id="20h76" depart="72020.00" from="H11H10" to="G8F8"/>
    <trip id="20h77" depart="72021.00" from="K0K1" to="A6B6"/>
    <trip id="20h78" depart="72021.00" from="J5K5" to="C6C7"/>
    <trip id="20h79" depart="72022.00" from="L10K10" to="K10K11"/>
    <trip id="20h80" depart="72022.00" from="B7B6" to="E10E11"/>
    <trip id="20h81" depart="72022.00" from="A7B7" to="E10E11"/>
    <trip id="20h82" depart="72022.00" from="H11H10" to="A3B3"/>
    <trip id="20h83" depart="72022.00" from="E0E1" to="H1H0"/>
    <trip id="20h84" depart="72023.00" from="E9F9" to="K7L7"/>
    <trip id="20h85" depart="72023.00" from="A1B1" to="H10G10"/>
    <trip id="20h86" depart="72023.00" from="L10K10" to="K10K11"/>
    <trip id="20h87" depart="72023.00" from="A9B9" to="B10A10"/>
    <trip id="20h88" depart="72024.00" from="F10E10" to="K1L1"/>
    <trip id="20h89" depart="72024.00" from="E0E1" to="H8H7"/>
    <trip id="20h90" depart="72024.00" from="K0K1" to="G10F10"/>
    <trip id="20h91" depart="72024.00" from="J1J2" to="B10A10"/>
    <trip id="20h92" depart="72024.00" from="E0E1" to="B1B0"/>
    <trip id="20h93" depart="72024.00" from="B11B10" to="K1L1"/>
    <trip id="20h94" depart="72026.00" from="B11B10" to="I2I1"/>
    <trip id="20h95" depart="72026.00" from="A1B1" to="B4A4"/>
    <trip id="20h96" depart="72027.00" from="C1D1" to="H1H0"/>
    <trip id="20h97" depart="72027.00" from="B11B10" to="K10K11"/>
    <trip id="20h98" depart="72027.00" from="E0E1" to="H1H0"/>
    <trip id="20h99" depart="72027.00" from="E0E1" to="K7L7"/>
    <trip id="20h100" depart="72028.00" from="D7E7" to="K10K11"/>
    <trip id="20h101" depart="72028.00" from="B11B10" to="E10E11"/>
    <trip id="20h102" depart="72028.00" from="D10C10" to="K10K11"/>
    <trip id="20h103" depart="72029.00" from="E6F6" to="B1B0"/>
    <trip id="20h104" depart="72029.00" from="E0E1" to="H1H0"/>
    <trip id="20h105" depart="72029.00" from="I4I5" to="B1B0"/>
    <trip id="20h106" depart="72029.00" from="E0E1" to="B4A4"/>
    <trip id="20h107" depart="72029.00" from="K0K1" to="E10E11"/>
    <trip id="20h108" depart="72030.00" from="A1B1" to="B10A10"/>
    <trip id="20h109" depart="72030.00" from="A1B1" to="B1B0"/>
    <trip id="20h110" depart="72031.00" from="J8I8" to="H1H0"/>
    <trip id="20h111" depart="72031.00" from="K0K1" to="K10K11"/>
    <trip id="20h112" depart="72031.00" from="H11H10" to="K10K11"/>
    <trip id="20h113" depart="72031.00" from="L10K10" to="K7L7"/>
    <trip id="20h114" depart="72031.00" from="A1B1" to="B8A8"/>
    <trip id="20h115" depart="72031.00" from="K0K1" to="H7I7"/>
    <trip id="20h116" depart="72032.00" from="K10J10" to="K1L1"/>
    <trip id="20h117" depart="72032.00" from="L4K4" to="K1L1"/>
    <trip id="20h118" depart="72033.00" from="L4K4" to="I10I9"/>
    <trip id="20h119" depart="72033.00" from="L10K10" to="H1H0"/>
    <trip id="20h120" depart="72034.00" from="L10K10" to="K1L1"/>
    <trip id="20h121" depart="72034.00" from="L10K10" to="B4A4"/>
    <trip id="20h122" depart="72034.00" from="L10K10" to="B1B0"/>
    <trip id="20h123" depart="72034.00" from="L10K10" to="D1E1"/>
    <trip id="20h124" depart="72034.00" from="A1B1" to="K7L7"/>
    <trip id="20h125" depart="72035.00" from="K0K1" to="F6F7"/>
    <trip id="20h126" depart="72035.00" from="B11B10" to="K10K11"/>
    <trip id="20h127" depart="72035.00" from="H11H10" to="E9F9"/>
    <trip id="20h128" depart="72036.00" from="K0K1" to="B4A4"/>
    <trip id="20h129" depart="72036.00" from="A7B7" to="B1B0"/>
    <trip id="20h130" depart="72036.00" from="H11H10" to="K10K11"/>
    <trip id="20h131" depart="72036.00" from="B11B10" to="F4F3"/>
    <trip id="20h132" depart="72036.00" from="A7B7" to="B1B0"/>
    <trip id="20h133" depart="72036.00" from="A7B7" to="B10A10"/>
    <trip id="20h134" depart="72037.00" from="L4K4" to="H1H0"/>
    <trip id="20h135" depart="72037.00" from="L10K10" to="F8E8"/>
    <trip id="20h136" depart="72037.00" from="A1B1" to="K7L7"/>
    <trip id="20h137" depart="72038.00" from="H8H7" to="B10A10"/>
    <trip id="20h138" depart="72038.00" from="H11H10" to="B4A4"/>
    <trip id="20h139" depart="72038.00" from="K0K1" to="H1H0"/>
    <trip id="20h140" depart="72038.00" from="H11H10" to="E10E11"/>
    <trip id="20h141" depart="72039.00" from="H4G4" to="H1H0"/>
    <trip id="20h142" depart="72039.00" from="B11B10" to="J3J2"/>
    <trip id="20h143" depart="72039.00" from="A7B7" to="B10A10"/>
    <trip id="20h144" depart="72039.00" from="E0E1" to="H1H0"/>
    <trip id="20h145" depart="72039.00" from="B11B10" to="K10K11"/>
    <trip id="20h146" depart="72041.00" from="A7B7" to="B5C5"/>
    <trip id="20h147" depart="72041.00" from="A7B7" to="K10K11"/>
    <trip id="20h148" depart="72041.00" from="A1B1" to="E10E11"/>
    <trip id="20h149" depart="72042.00" from="B11B10" to="B10A10"/>
    <trip id="20h150" depart="72042.00" from="A1B1" to="K10K11"/>
    <trip id="20h151" depart="72043.00" from="H11H10" to="I10I11"/>
    <trip id="20h152" depart="72043.00" from="D6C6" to="C8C9"/>
    <trip id="20h153" depart="72043.00" from="K0K1" to="B4A4"/>
    <trip id="20h154" depart="72044.00" from="C3D3" to="K7L7"/>
    <trip id="20h155" depart="72044.00" from="E0E1" to="K10K11"/>
    <trip id="20h156" depart="72045.00" from="H11H10" to="K7L7"/>
    <trip id="20h157" depart="72045.00" from="L4K4" to="H1H0"/>
    <trip id="20h158" depart="72045.00" from="A7B7" to="H1H0"/>
    <trip id="20h159" depart="72045.00" from="gneE2" to="K7L7"/>
    <trip id="20h160" depart="72045.00" from="L10K10" to="G1H1"/>
    <trip id="20h161" depart="72046.00" from="L10K10" to="K7L7"/>
    <trip id="20h162" depart="72046.00" from="H11H10" to="E10E11"/>
    <trip id="20h163" depart="72046.00" from="L10K10" to="E10E11"/>
    <trip id="20h164" depart="72047.00" from="B11B10" to="H1H0"/>
    <trip id="20h165" depart="72047.00" from="H11H10" to="D4C4"/>
    <trip id="20h166" depart="72047.00" from="A7B7" to="K10K11"/>
    <trip id="20h167" depart="72048.00" from="K3J3" to="B10A10"/>
    <trip id="20h168" depart="72049.00" from="G3H3" to="H1H0"/>
    <trip id="20h169" depart="72049.00" from="E8E9" to="K7L7"/>
    <trip id="20h170" depart="72050.00" from="K0K1" to="I8I9"/>
    <trip id="20h171" depart="72050.00" from="K0K1" to="K10K11"/>
    <trip id="20h172" depart="72050.00" from="A1B1" to="H9H8"/>
    <trip id="20h173" depart="72051.00" from="I10H10" to="K2K3"/>
    <trip id="20h174" depart="72051.00" from="L10K10" to="B4A4"/>
    <trip id="20h175" depart="72051.00" from="H11H10" to="H1H0"/>
    <trip id="20h176" depart="72052.00" from="A1B1" to="K1L1"/>
    <trip id="20h177" depart="72052.00" from="L4K4" to="B1B0"/>
    <trip id="20h178" depart="72052.00" from="B11B10" to="B10A10"/>
    <trip id="20h179" depart="72052.00" from="E0E1" to="D5D4"/>
    <trip id="20h180" depart="72053.00" from="L10K10" to="B1B0"/>
    <trip id="20h181" depart="72053.00" from="H11H10" to="H1H0"/>
    <trip id="20h182" depart="72053.00" from="L4K4" to="J2I2"/>
    <trip id="20h183" depart="72053.00" from="H11H10" to="K10K11"/>
    <trip id="20h184" depart="72054.00" from="H11H10" to="G1G0"/>
    <trip id="20h185" depart="72054.00" from="L10K10" to="H1H0"/>
    <trip id="20h186" depart="72055.00" from="E0E1" to="H1H0"/>
    <trip id="20h187" depart="72055.00" from="B11B10" to="K10K11"/>
    <trip id="20h188" depart="72055.00" from="A7B7" to="H1H0"/>
    <trip id="20h189" depart="72056.00" from="L10K10" to="F3G3"/>
    <trip id="20h190" depart="72056.00" from="A7B7" to="K7L7"/>
    <trip id="20h191" depart="72056.00" from="L4K4" to="K1L1"/>
    <trip id="20h192" depart="72057.00" from="H11H10" to="E10E11"/>
    <trip id="20h193" depart="72057.00" from="B11B10" to="B10A10"/>
    <trip id="20h194" depart="72058.00" from="A1B1" to="K1L1"/>
    <trip id="20h195" depart="72058.00" from="E0E1" to="B1B0"/>
    <trip id="20h196" depart="72058.00" from="F9F8" to="B10A10"/>
    <trip id="20h197" depart="72058.00" from="E0E1" to="J8K8"/>
    <trip id="20h198" depart="72059.00" from="E0E1" to="B10A10"/>
    <trip id="20h199" depart="72059.00" from="E0E1" to="E10E11"/>
    <trip id="20h200" depart="72060.00" from="K0K1" to="H1H0"/>
    <trip id="20h201" depart="72060.00" from="A7B7" to="K1L1"/>
    <trip id="20h202" depart="72060.00" from="K9K10" to="B4A4"/>
    <trip id="20h203" depart="72061.00" from="H11H10" to="B10A10"/>
    <trip id="20h204" depart="72061.00" from="B11B10" to="K1L1"/>
    <trip id="20h205" depart="72061.00" from="A7B7" to="K7L7"/>
    <trip id="20h206" depart="72061.00" from="L10K10" to="B1B0"/>
    <trip id="20h207" depart="72061.00" from="B11B10" to="B1B0"/>
    <trip id="20h208" depart="72061.00" from="A1B1" to="K1L1"/>
    <trip id="20h209" depart="72061.00" from="C3D3" to="B1B0"/>
    <trip id="20h210" depart="72061.00" from="K0K1" to="H1H0"/>
    <trip id="20h211" depart="72062.00" from="G4F4" to="K7L7"/>
    <trip id="20h212" depart="72062.00" from="K6L6" to="K1L1"/>
    <trip id="20h213" depart="72062.00" from="F2E2" to="E10E11"/>
    <trip id="20h214" depart="72063.00" from="A1B1" to="H1H0"/>
    <trip id="20h215" depart="72063.00" from="B11B10" to="I10H10"/>
    <trip id="20h216" depart="72063.00" from="gneE4" to="H1H0"/>
    <trip id="20h217" depart="72063.00" from="K0K1" to="K1L1"/>
    <trip id="20h218" depart="72064.00" from="E0E1" to="B4A4"/>
    <trip id="20h219" depart="72064.00" from="E0E1" to="E10E11"/>
    <trip id="20h220" depart="72064.00" from="E0E1" to="J6I6"/>
    <trip id="20h221" depart="72064.00" from="L4K4" to="B10A10"/>
    <trip id="20h222" depart="72064.00" from="A1B1" to="K10K11"/>
    <trip id="20h223" depart="72065.00" from="A7B7" to="D8E8"/>
    <trip id="20h224" depart="72066.00" from="J1K1" to="B4A4"/>
    <trip id="20h225" depart="72066.00" from="L10K10" to="E10E11"/>
    <trip id="20h226" depart="72067.00" from="L4K4" to="K1L1"/>
    <trip id="20h227" depart="72067.00" from="A7B7" to="K10K11"/>
    <trip id="20h228" depart="72067.00" from="D1E1" to="B10A10"/>
    <trip id="20h229" depart="72067.00" from="I10H10" to="B10A10"/>
    <trip id="20h230" depart="72068.00" from="E0E1" to="D2C2"/>
    <trip id="20h231" depart="72068.00" from="A1B1" to="B1B0"/>
    <trip id="20h232" depart="72068.00" from="J4I4" to="F5E5"/>
    <trip id="20h233" depart="72069.00" from="K0K1" to="B1B0"/>
    <trip id="20h234" depart="72069.00" from="K0K1" to="F5G5"/>
    <trip id="20h235" depart="72069.00" from="E0E1" to="H1H0"/>
    <trip id="20h236" depart="72069.00" from="B2B1" to="B4A4"/>
    <trip id="20h237" depart="72069.00" from="B11B10" to="C5D5"/>
    <trip id="20h238" depart="72069.00" from="K0K1" to="B1B0"/>
    <trip id="20h239" depart="72070.00" from="L10K10" to="B10A10"/>
    <trip id="20h240" depart="72070.00" from="L4K4" to="K1L1"/>
    <trip id="20h241" depart="72071.00" from="A1B1" to="C4B4"/>
    <trip id="20h242" depart="72071.00" from="L10K10" to="B4A4"/>
    <trip id="20h243" depart="72071.00" from="D1D2" to="C8C9"/>
    <trip id="20h244" depart="72072.00" from="G7H7" to="B1B0"/>
    <trip id="20h245" depart="72072.00" from="A7B7" to="B1B0"/>
    <trip id="20h246" depart="72073.00" from="K1K2" to="G10F10"/>
    <trip id="20h247" depart="72074.00" from="A1B1" to="E10E11"/>
    <trip id="20h248" depart="72074.00" from="B11B10" to="B10A10"/>
    <trip id="20h249" depart="72074.00" from="E0E1" to="B10A10"/>
    <trip id="20h250" depart="72074.00" from="L10K10" to="K1L1"/>
    <trip id="20h251" depart="72075.00" from="F10F11" to="B1B0"/>
    <trip id="20h252" depart="72075.00" from="A7B7" to="K7L7"/>
    <trip id="20h253" depart="72076.00" from="B11B10" to="E10E11"/>
    <trip id="20h254" depart="72076.00" from="E0E1" to="B4A4"/>
    <trip id="20h255" depart="72076.00" from="H11H10" to="K1L1"/>
    <trip id="20h256" depart="72076.00" from="A1B1" to="K10K11"/>
    <trip id="20h257" depart="72076.00" from="K0K1" to="J1K1"/>
    <trip id="20h258" depart="72077.00" from="H11H10" to="B1B0"/>
    <trip id="20h259" depart="72077.00" from="E0E1" to="K1L1"/>
    <trip id="20h260" depart="72079.00" from="B11B10" to="K7L7"/>
    <trip id="20h261" depart="72079.00" from="A7B7" to="B10A10"/>
    <trip id="20h262" depart="72079.00" from="K0K1" to="K1L1"/>
    <trip id="20h263" depart="72079.00" from="D11D10" to="K10K11"/>
    <trip id="20h264" depart="72079.00" from="E0E1" to="B1B0"/>
    <trip id="20h265" depart="72080.00" from="E0E1" to="E10E11"/>
    <trip id="20h266" depart="72080.00" from="E0E1" to="B4A4"/>
    <trip id="20h267" depart="72080.00" from="L10K10" to="E7F7"/>
    <trip id="20h268" depart="72081.00" from="E0E1" to="H1H0"/>
    <trip id="20h269" depart="72081.00" from="B11B10" to="I4H4"/>
    <trip id="20h270" depart="72082.00" from="L10K10" to="K1L1"/>
    <trip id="20h271" depart="72082.00" from="K0K1" to="B4A4"/>
    <trip id="20h272" depart="72082.00" from="E0E1" to="K7L7"/>
    <trip id="20h273" depart="72082.00" from="E0E1" to="D7D6"/>
    <trip id="20h274" depart="72082.00" from="A1B1" to="G3H3"/>
    <trip id="20h275" depart="72082.00" from="gneE4" to="E10E11"/>
    <trip id="20h276" depart="72082.00" from="L4K4" to="K1L1"/>
    <trip id="20h277" depart="72083.00" from="B11B10" to="K1L1"/>
    <trip id="20h278" depart="72083.00" from="K0K1" to="E10E11"/>
    <trip id="20h279" depart="72083.00" from="A1B1" to="B4A4"/>
    <trip id="20h280" depart="72083.00" from="B11B10" to="B4A4"/>
    <trip id="20h281" depart="72083.00" from="E0E1" to="K1L1"/>
    <trip id="20h282" depart="72084.00" from="L4K4" to="H1H0"/>
    <trip id="20h283" depart="72084.00" from="H10G10" to="B4A4"/>
    <trip id="20h284" depart="72084.00" from="E0E1" to="H1H0"/>
    <trip id="20h285" depart="72084.00" from="E0E1" to="J6I6"/>
    <trip id="20h286" depart="72084.00" from="L4K4" to="B10A10"/>
    <trip id="20h287" depart="72085.00" from="A1B1" to="K1L1"/>
    <trip id="20h288" depart="72086.00" from="A1B1" to="H1H0"/>
    <trip id="20h289" depart="72086.00" from="K4K5" to="E6D6"/>
    <trip id="20h290" depart="72086.00" from="K3K4" to="E2E3"/>
    <trip id="20h291" depart="72086.00" from="A1B1" to="B1B0"/>
    <trip id="20h292" depart="72086.00" from="L4K4" to="H10G10"/>
    <trip id="20h293" depart="72087.00" from="K0K1" to="B1B0"/>
    <trip id="20h294" depart="72087.00" from="A7B7" to="E10E11"/>
    <trip id="20h295" depart="72088.00" from="H11H10" to="K1L1"/>
    <trip id="20h296" depart="72088.00" from="A1B1" to="J3J4"/>
    <trip id="20h297" depart="72089.00" from="H11H10" to="E10E11"/>
    <trip id="20h298" depart="72089.00" from="L10K10" to="D8C8"/>
    <trip id="20h299" depart="72089.00" from="L4K4" to="K7L7"/>
    <trip id="20h300" depart="72089.00" from="I2I1" to="E10E11"/>
    <trip id="20h301" depart="72090.00" from="H11H10" to="K1L1"/>
    <trip id="20h302" depart="72090.00" from="A1B1" to="K1L1"/>
    <trip id="20h303" depart="72091.00" from="A7B7" to="K10K11"/>
    <trip id="20h304" depart="72091.00" from="B11B10" to="E10E11"/>
    <trip id="20h305" depart="72092.00" from="L4K4" to="F8F7"/>
    <trip id="20h306" depart="72092.00" from="L10K10" to="E10E11"/>
    <trip id="20h307" depart="72092.00" from="K0K1" to="K1L1"/>
    <trip id="20h308" depart="72092.00" from="D5E5" to="B10A10"/>
    <trip id="20h309" depart="72093.00" from="B11B10" to="B1B0"/>
    <trip id="20h310" depart="72093.00" from="H11H10" to="E10E11"/>
    <trip id="20h311" depart="72094.00" from="B7B6" to="gneE9"/>
    <trip id="20h312" depart="72094.00" from="L4K4" to="I4I3"/>
    <trip id="20h313" depart="72095.00" from="L4K4" to="E10E11"/>
    <trip id="20h314" depart="72095.00" from="A7B7" to="B1B0"/>
    <trip id="20h315" depart="72095.00" from="C3B3" to="K10K11"/>
    <trip id="20h316" depart="72096.00" from="I10I9" to="H1H0"/>
    <trip id="20h317" depart="72096.00" from="B2C2" to="H1H0"/>
    <trip id="20h318" depart="72096.00" from="L4K4" to="B1B0"/>
    <trip id="20h319" depart="72097.00" from="A1B1" to="I4H4"/>
    <trip id="20h320" depart="72097.00" from="L4K4" to="F4E4"/>
    <trip id="20h321" depart="72098.00" from="A1B1" to="B10A10"/>
    <trip id="20h322" depart="72098.00" from="H11H10" to="B8B7"/>
    <trip id="20h323" depart="72098.00" from="E0E1" to="H1H0"/>
    <trip id="20h324" depart="72099.00" from="E6E7" to="B4A4"/>
    <trip id="20h325" depart="72099.00" from="A1B1" to="B4A4"/>
    <trip id="20h326" depart="72099.00" from="L10K10" to="B1B0"/>
    <trip id="20h327" depart="72099.00" from="H11H10" to="B8B7"/>
    <trip id="20h328" depart="72100.00" from="A1B1" to="K7L7"/>
    <trip id="20h329" depart="72100.00" from="D8C8" to="B10A10"/>
    <trip id="20h330" depart="72101.00" from="H11H10" to="B10A10"/>
    <trip id="20h331" depart="72102.00" from="gneE0" to="K10K11"/>
    <trip id="20h332" depart="72102.00" from="L4K4" to="E10E11"/>
    <trip id="20h333" depart="72102.00" from="L4K4" to="K10K11"/>
    <trip id="20h334" depart="72102.00" from="G7G8" to="G2G3"/>
    <trip id="20h335" depart="72102.00" from="A7B7" to="C8C9"/>
    <trip id="20h336" depart="72103.00" from="H11H10" to="B1B0"/>
    <trip id="20h337" depart="72103.00" from="D10C10" to="K1L1"/>
    <trip id="20h338" depart="72103.00" from="L10K10" to="E10E11"/>
    <trip id="20h339" depart="72104.00" from="F10E10" to="K7L7"/>
    <trip id="20h340" depart="72104.00" from="H8H7" to="H3H2"/>
    <trip id="20h341" depart="72105.00" from="K0K1" to="B10A10"/>
    <trip id="20h342" depart="72105.00" from="A1B1" to="B8C8"/>
    <trip id="20h343" depart="72105.00" from="K0K1" to="E10E11"/>
    <trip id="20h344" depart="72105.00" from="A7B7" to="B4A4"/>
    <trip id="20h345" depart="72106.00" from="J4I4" to="H1H0"/>
    <trip id="20h346" depart="72106.00" from="A7B7" to="K7L7"/>
    <trip id="20h347" depart="72106.00" from="B11B10" to="H1H0"/>
    <trip id="20h348" depart="72107.00" from="L4K4" to="B4A4"/>
    <trip id="20h349" depart="72107.00" from="B11B10" to="K10K11"/>
    <trip id="20h350" depart="72107.00" from="D6D5" to="K7L7"/>
    <trip id="20h351" depart="72107.00" from="A7B7" to="K10K11"/>
    <trip id="20h352" depart="72108.00" from="B11B10" to="K10K11"/>
    <trip id="20h353" depart="72108.00" from="F2E2" to="B2A2"/>
    <trip id="20h354" depart="72108.00" from="H1I1" to="H1H0"/>
    <trip id="20h355" depart="72108.00" from="J8I8" to="H1H0"/>
    <trip id="20h356" depart="72109.00" from="E0E1" to="K10K11"/>
    <trip id="20h357" depart="72109.00" from="K0K1" to="B10A10"/>
    <trip id="20h358" depart="72109.00" from="L4K4" to="C2C3"/>
    <trip id="20h359" depart="72110.00" from="H11H10" to="H1H0"/>
    <trip id="20h360" depart="72110.00" from="L10K10" to="B1B0"/>
    <trip id="20h361" depart="72111.00" from="H11H10" to="B1B0"/>
    <trip id="20h362" depart="72111.00" from="gneE0" to="H1H0"/>
    <trip id="20h363" depart="72112.00" from="A7B7" to="B1B0"/>
    <trip id="20h364" depart="72112.00" from="A7B7" to="K10K11"/>
    <trip id="20h365" depart="72112.00" from="L10K10" to="K7L7"/>
    <trip id="20h366" depart="72113.00" from="J7K7" to="B1B0"/>
    <trip id="20h367" depart="72113.00" from="C3D3" to="B4A4"/>
    <trip id="20h368" depart="72113.00" from="B11B10" to="K10K11"/>
    <trip id="20h369" depart="72113.00" from="K0K1" to="B10A10"/>
    <trip id="20h370" depart="72113.00" from="A7B7" to="B5B4"/>
    <trip id="20h371" depart="72114.00" from="A7B7" to="K7L7"/>
    <trip id="20h372" depart="72114.00" from="H11H10" to="B4A4"/>
    <trip id="20h373" depart="72114.00" from="A7B7" to="K10K11"/>
    <trip id="20h374" depart="72115.00" from="B11B10" to="K10K11"/>
    <trip id="20h375" depart="72115.00" from="E0E1" to="K10K11"/>
    <trip id="20h376" depart="72115.00" from="H11H10" to="B10A10"/>
    <trip id="20h377" depart="72115.00" from="C5D5" to="H1H0"/>
    <trip id="20h378" depart="72115.00" from="B11B10" to="H1H0"/>
    <trip id="20h379" depart="72116.00" from="G7H7" to="K1L1"/>
    <trip id="20h380" depart="72116.00" from="E4D4" to="K1L1"/>
    <trip id="20h381" depart="72117.00" from="D4C4" to="B10A10"/>
    <trip id="20h382" depart="72117.00" from="L4K4" to="B10A10"/>
    <trip id="20h383" depart="72119.00" from="H11H10" to="H1H0"/>
    <trip id="20h384" depart="72119.00" from="A1B1" to="B10A10"/>
    <trip id="20h385" depart="72119.00" from="K0K1" to="H1H0"/>
    <trip id="20h386" depart="72119.00" from="D5D4" to="B4A4"/>
    <trip id="20h387" depart="72119.00" from="L10K10" to="E10E11"/>
    <trip id="20h388" depart="72120.00" from="B11B10" to="B10A10"/>
    <trip id="20h389" depart="72120.00" from="H11H10" to="K10K11"/>
    <trip id="20h390" depart="72120.00" from="K0K1" to="E10E11"/>
    <trip id="20h391" depart="72120.00" from="B11B10" to="K1L1"/>
    <trip id="20h392" depart="72120.00" from="G4F4" to="B4A4"/>
    <trip id="20h393" depart="72120.00" from="H11H10" to="J9J8"/>
    <trip id="20h394" depart="72121.00" from="B2B1" to="B1B0"/>
    <trip id="20h395" depart="72121.00" from="B2A2" to="B10A10"/>
    <trip id="20h396" depart="72122.00" from="E0E1" to="B1B0"/>
    <trip id="20h397" depart="72122.00" from="K0K1" to="K1L1"/>
    <trip id="20h398" depart="72123.00" from="B11B10" to="B2B1"/>
    <trip id="20h399" depart="72123.00" from="K0K1" to="B1B0"/>
    <trip id="20h400" depart="72123.00" from="K0K1" to="H1H0"/>
    <trip id="20h401" depart="72124.00" from="K0K1" to="K10K11"/>
    <trip id="20h402" depart="72124.00" from="L4K4" to="B10A10"/>
    <trip id="20h403" depart="72124.00" from="gneE9" to="F2E2"/>
    <trip id="20h404" depart="72124.00" from="H11H10" to="B2C2"/>
    <trip id="20h405" depart="72125.00" from="G9G10" to="G1G2"/>
    <trip id="20h406" depart="72125.00" from="L4K4" to="E8E9"/>
    <trip id="20h407" depart="72126.00" from="A7B7" to="B4A4"/>
    <trip id="20h408" depart="72126.00" from="C6C7" to="E10E11"/>
    <trip id="20h409" depart="72127.00" from="L10K10" to="K7L7"/>
    <trip id="20h410" depart="72127.00" from="L10K10" to="B1B0"/>
    <trip id="20h411" depart="72128.00" from="A1B1" to="K1L1"/>
    <trip id="20h412" depart="72128.00" from="K0K1" to="B10A10"/>
    <trip id="20h413" depart="72129.00" from="H11H10" to="B10A10"/>
    <trip id="20h414" depart="72129.00" from="L4K4" to="B10A10"/>
    <trip id="20h415" depart="72130.00" from="A1B1" to="B1B0"/>
    <trip id="20h416" depart="72130.00" from="H11H10" to="K1L1"/>
    <trip id="20h417" depart="72130.00" from="E0E1" to="E10E11"/>
    <trip id="20h418" depart="72130.00" from="K0K1" to="K1L1"/>
    <trip id="20h419" depart="72131.00" from="E0E1" to="H1H0"/>
    <trip id="20h420" depart="72131.00" from="A1B1" to="B1B0"/>
    <trip id="20h421" depart="72131.00" from="H11H10" to="B10A10"/>
    <trip id="20h422" depart="72131.00" from="L10K10" to="K7L7"/>
    <trip id="20h423" depart="72132.00" from="A1B1" to="K7L7"/>
    <trip id="20h424" depart="72132.00" from="L4K4" to="B9B8"/>
    <trip id="20h425" depart="72133.00" from="A7B7" to="B4A4"/>
    <trip id="20h426" depart="72133.00" from="K0K1" to="B1B0"/>
    <trip id="20h427" depart="72133.00" from="E0E1" to="K1L1"/>
    <trip id="20h428" depart="72134.00" from="B11B10" to="gneE2"/>
    <trip id="20h429" depart="72135.00" from="H2I2" to="K1L1"/>
    <trip id="20h430" depart="72135.00" from="A7B7" to="K10K11"/>
    <trip id="20h431" depart="72135.00" from="A7B7" to="B10A10"/>
    <trip id="20h432" depart="72135.00" from="E0E1" to="B4A4"/>
    <trip id="20h433" depart="72135.00" from="A7B7" to="E10E11"/>
    <trip id="20h434" depart="72136.00" from="D8E8" to="B10A10"/>
    <trip id="20h435" depart="72136.00" from="E0E1" to="B4A4"/>
    <trip id="20h436" depart="72136.00" from="L4K4" to="K7L7"/>
    <trip id="20h437" depart="72136.00" from="E0E1" to="B1B0"/>
    <trip id="20h438" depart="72137.00" from="F9G9" to="B10A10"/>
    <trip id="20h439" depart="72137.00" from="B11B10" to="B4A4"/>
    <trip id="20h440" depart="72137.00" from="A7B7" to="B4B3"/>
    <trip id="20h441" depart="72137.00" from="H4G4" to="K1L1"/>
    <trip id="20h442" depart="72138.00" from="C9D9" to="K1L1"/>
    <trip id="20h443" depart="72138.00" from="C2C1" to="K7L7"/>
    <trip id="20h444" depart="72138.00" from="B9B8" to="K7L7"/>
    <trip id="20h445" depart="72138.00" from="K0K1" to="F8E8"/>
    <trip id="20h446" depart="72138.00" from="E0E1" to="K1L1"/>
    <trip id="20h447" depart="72139.00" from="H11H10" to="H1H0"/>
    <trip id="20h448" depart="72139.00" from="K0K1" to="K1L1"/>
    <trip id="20h449" depart="72140.00" from="J2K2" to="K10K11"/>
    <trip id="20h450" depart="72140.00" from="gneE10" to="F2E2"/>
    <trip id="20h451" depart="72141.00" from="K0K1" to="J2I2"/>
    <trip id="20h452" depart="72141.00" from="L4K4" to="K10K11"/>