<?xml version="1.0" encoding="UTF-8"?>
<!-- generated on 2020-12-09 03:20:58.520790 by randomTrips.py v1_7_0+0000-714814baed
  options: -n .\data/grid01-bcn_50.net.xml <doubleminus>prefix=17h <doubleminus>fringe-factor 100 -b 61200 -e 64800 -p0.17451160986960104 <doubleminus>binomial 10 -odata/random/random_h_17-bcn_50.trips.rou.xml <doubleminus>edge-permission=passenger
-->
<routes xmlns:xsi="http://www.w3.org/2001/XMLSchema-instance" xsi:noNamespaceSchemaLocation="http://sumo.dlr.de/xsd/routes_file.xsd">
    <trip id="17h0" depart="61200.00" from="B11B10" to="B4A4"/>
    <trip id="17h1" depart="61200.00" from="E0E1" to="B10A10"/>
    <trip id="17h2" depart="61200.00" from="G5G6" to="B10A10"/>
    <trip id="17h3" depart="61200.00" from="I8I9" to="H1H0"/>
    <trip id="17h4" depart="61200.00" from="H11H10" to="K1L1"/>
    <trip id="17h5" depart="61200.00" from="L10K10" to="K10K11"/>
    <trip id="17h6" depart="61201.00" from="A7B7" to="K7L7"/>
    <trip id="17h7" depart="61201.00" from="A1B1" to="B10A10"/>
    <trip id="17h8" depart="61201.00" from="L4K4" to="E10E11"/>
    <trip id="17h9" depart="61201.00" from="L10K10" to="H2I2"/>
    <trip id="17h10" depart="61202.00" from="B11B10" to="B4A4"/>
    <trip id="17h11" depart="61202.00" from="B11B10" to="B10A10"/>
    <trip id="17h12" depart="61202.00" from="I10I9" to="E10E11"/>
    <trip id="17h13" depart="61202.00" from="B11B10" to="B4A4"/>
    <trip id="17h14" depart="61202.00" from="K0K1" to="B1B0"/>
    <trip id="17h15" depart="61202.00" from="gneE1" to="I3J3"/>
    <trip id="17h16" depart="61203.00" from="K0K1" to="K1L1"/>
    <trip id="17h17" depart="61203.00" from="A1B1" to="C0C1"/>
    <trip id="17h18" depart="61203.00" from="B11B10" to="K7L7"/>
    <trip id="17h19" depart="61203.00" from="J1J0" to="E10E11"/>
    <trip id="17h20" depart="61203.00" from="B11B10" to="B4A4"/>
    <trip id="17h21" depart="61203.00" from="B11B10" to="H1H0"/>
    <trip id="17h22" depart="61204.00" from="B11B10" to="gneE7"/>
    <trip id="17h23" depart="61204.00" from="A1B1" to="B10A10"/>
    <trip id="17h24" depart="61204.00" from="H7I7" to="K1L1"/>
    <trip id="17h25" depart="61204.00" from="A1B1" to="E10E11"/>
    <trip id="17h26" depart="61204.00" from="L4K4" to="K1L1"/>
    <trip id="17h27" depart="61204.00" from="K0K1" to="K10K11"/>
    <trip id="17h28" depart="61204.00" from="B11B10" to="I4H4"/>
    <trip id="17h29" depart="61204.00" from="E0E1" to="E10E11"/>
    <trip id="17h30" depart="61205.00" from="G2G3" to="B1B0"/>
    <trip id="17h31" depart="61205.00" from="I3H3" to="H1H0"/>
    <trip id="17h32" depart="61205.00" from="K0K1" to="H1H0"/>
    <trip id="17h33" depart="61205.00" from="A1B1" to="C4B4"/>
    <trip id="17h34" depart="61205.00" from="L4K4" to="K5K6"/>
    <trip id="17h35" depart="61206.00" from="A1B1" to="K5K6"/>
    <trip id="17h36" depart="61206.00" from="F5E5" to="B10A10"/>
    <trip id="17h37" depart="61206.00" from="F10E10" to="H1H0"/>
    <trip id="17h38" depart="61206.00" from="L10K10" to="E10E11"/>
    <trip id="17h39" depart="61206.00" from="H11H10" to="K10K11"/>
    <trip id="17h40" depart="61206.00" from="B8A8" to="gneE5"/>
    <trip id="17h41" depart="61207.00" from="H11H10" to="B1B0"/>
    <trip id="17h42" depart="61207.00" from="D1D0" to="H1H0"/>
    <trip id="17h43" depart="61207.00" from="B11B10" to="B10A10"/>
    <trip id="17h44" depart="61207.00" from="L4K4" to="K1L1"/>
    <trip id="17h45" depart="61207.00" from="B11B10" to="J7K7"/>
    <trip id="17h46" depart="61207.00" from="A7B7" to="K7L7"/>
    <trip id="17h47" depart="61207.00" from="E9F9" to="K1L1"/>
    <trip id="17h48" depart="61207.00" from="A1B1" to="E10E11"/>
    <trip id="17h49" depart="61208.00" from="E6F6" to="K10K11"/>
    <trip id="17h50" depart="61208.00" from="E0E1" to="D1D2"/>
    <trip id="17h51" depart="61208.00" from="A7B7" to="E10E11"/>
    <trip id="17h52" depart="61208.00" from="B11B10" to="B4A4"/>
    <trip id="17h53" depart="61208.00" from="L10K10" to="H1H0"/>
    <trip id="17h54" depart="61208.00" from="gneE9" to="K1L1"/>
    <trip id="17h55" depart="61209.00" from="F5E5" to="B4A4"/>
    <trip id="17h56" depart="61209.00" from="A1B1" to="E10E11"/>
    <trip id="17h57" depart="61209.00" from="K7K8" to="E10E11"/>
    <trip id="17h58" depart="61209.00" from="L4K4" to="gneE5"/>
    <trip id="17h59" depart="61209.00" from="K0K1" to="B1B0"/>
    <trip id="17h60" depart="61209.00" from="L4K4" to="H1H0"/>
    <trip id="17h61" depart="61210.00" from="K0K1" to="B10A10"/>
    <trip id="17h62" depart="61210.00" from="L10K10" to="B1B0"/>
    <trip id="17h63" depart="61210.00" from="A7B7" to="H1H0"/>
    <trip id="17h64" depart="61210.00" from="A7B7" to="K7L7"/>
    <trip id="17h65" depart="61210.00" from="H11H10" to="H3H2"/>
    <trip id="17h66" depart="61210.00" from="H11H10" to="H1H0"/>
    <trip id="17h67" depart="61211.00" from="K0K1" to="B4A4"/>
    <trip id="17h68" depart="61211.00" from="J9J10" to="B4A4"/>
    <trip id="17h69" depart="61211.00" from="K0K1" to="B10A10"/>
    <trip id="17h70" depart="61211.00" from="gneE8" to="gneE6"/>
    <trip id="17h71" depart="61211.00" from="B11B10" to="B4A4"/>
    <trip id="17h72" depart="61211.00" from="A7B7" to="K1L1"/>
    <trip id="17h73" depart="61212.00" from="L10K10" to="B4A4"/>
    <trip id="17h74" depart="61212.00" from="A7B7" to="B1B0"/>
    <trip id="17h75" depart="61212.00" from="B11B10" to="H1H0"/>
    <trip id="17h76" depart="61212.00" from="I10I11" to="B4A4"/>
    <trip id="17h77" depart="61213.00" from="L4K4" to="K1L1"/>
    <trip id="17h78" depart="61213.00" from="E0E1" to="B4A4"/>
    <trip id="17h79" depart="61213.00" from="K0K1" to="I2I1"/>
    <trip id="17h80" depart="61213.00" from="K0K1" to="H1H0"/>
    <trip id="17h81" depart="61213.00" from="A1B1" to="B10A10"/>
    <trip id="17h82" depart="61213.00" from="L10K10" to="H1H0"/>
    <trip id="17h83" depart="61213.00" from="A7B7" to="B6B5"/>
    <trip id="17h84" depart="61214.00" from="B11B10" to="B1B0"/>
    <trip id="17h85" depart="61214.00" from="H4G4" to="B1B0"/>
    <trip id="17h86" depart="61215.00" from="K0K1" to="C8C7"/>
    <trip id="17h87" depart="61215.00" from="K9K10" to="B1B0"/>
    <trip id="17h88" depart="61216.00" from="L10K10" to="E3E4"/>
    <trip id="17h89" depart="61216.00" from="L10K10" to="B4A4"/>
    <trip id="17h90" depart="61216.00" from="A7B7" to="C5D5"/>
    <trip id="17h91" depart="61216.00" from="I4H4" to="E10E11"/>
    <trip id="17h92" depart="61216.00" from="L4K4" to="B1B0"/>
    <trip id="17h93" depart="61216.00" from="L4K4" to="B4A4"/>
    <trip id="17h94" depart="61217.00" from="E0E1" to="K10K11"/>
    <trip id="17h95" depart="61217.00" from="H11H10" to="G8F8"/>
    <trip id="17h96" depart="61217.00" from="H11H10" to="B4A4"/>
    <trip id="17h97" depart="61217.00" from="L4K4" to="H1H0"/>
    <trip id="17h98" depart="61217.00" from="A1B1" to="J5K5"/>
    <trip id="17h99" depart="61217.00" from="B8C8" to="K1L1"/>
    <trip id="17h100" depart="61218.00" from="B7B6" to="E10E11"/>
    <trip id="17h101" depart="61218.00" from="B11B10" to="B1B0"/>
    <trip id="17h102" depart="61218.00" from="L4K4" to="K10K11"/>
    <trip id="17h103" depart="61218.00" from="H11H10" to="A3B3"/>
    <trip id="17h104" depart="61218.00" from="E0E1" to="H1H0"/>
    <trip id="17h105" depart="61218.00" from="E0E1" to="B4A4"/>
    <trip id="17h106" depart="61219.00" from="L4K4" to="K1L1"/>
    <trip id="17h107" depart="61219.00" from="A1B1" to="H10G10"/>
    <trip id="17h108" depart="61219.00" from="L10K10" to="K10K11"/>
    <trip id="17h109" depart="61219.00" from="A9B9" to="B10A10"/>
    <trip id="17h110" depart="61219.00" from="F10E10" to="K1L1"/>
    <trip id="17h111" depart="61219.00" from="E0E1" to="H8H7"/>
    <trip id="17h112" depart="61219.00" from="K0K1" to="G10F10"/>
    <trip id="17h113" depart="61219.00" from="J1J2" to="B10A10"/>
    <trip id="17h114" depart="61220.00" from="E0E1" to="B1B0"/>
    <trip id="17h115" depart="61220.00" from="A1B1" to="B4A4"/>
    <trip id="17h116" depart="61220.00" from="L10K10" to="J7J8"/>
    <trip id="17h117" depart="61221.00" from="L10K10" to="H1H0"/>
    <trip id="17h118" depart="61221.00" from="B11B10" to="B4A4"/>
    <trip id="17h119" depart="61221.00" from="H7H6" to="B4A4"/>
    <trip id="17h120" depart="61222.00" from="B11B10" to="B4A4"/>
    <trip id="17h121" depart="61222.00" from="H11H10" to="B1B0"/>
    <trip id="17h122" depart="61222.00" from="K0K1" to="K10K11"/>
    <trip id="17h123" depart="61222.00" from="E0E1" to="H1H0"/>
    <trip id="17h124" depart="61222.00" from="B11B10" to="E10E11"/>
    <trip id="17h125" depart="61223.00" from="A1B1" to="D7E7"/>
    <trip id="17h126" depart="61223.00" from="K0K1" to="H1H0"/>
    <trip id="17h127" depart="61223.00" from="B11B10" to="E10E11"/>
    <trip id="17h128" depart="61223.00" from="D10C10" to="K10K11"/>
    <trip id="17h129" depart="61223.00" from="A7B7" to="E6F6"/>
    <trip id="17h130" depart="61223.00" from="H5G5" to="B10A10"/>
    <trip id="17h131" depart="61224.00" from="H11H10" to="B10A10"/>
    <trip id="17h132" depart="61224.00" from="E4D4" to="B10A10"/>
    <trip id="17h133" depart="61224.00" from="B11B10" to="C5C6"/>
    <trip id="17h134" depart="61224.00" from="K0K1" to="K1L1"/>
    <trip id="17h135" depart="61224.00" from="A1B1" to="B10A10"/>
    <trip id="17h136" depart="61224.00" from="gneE9" to="D7D6"/>
    <trip id="17h137" depart="61225.00" from="A1B1" to="B1B0"/>
    <trip id="17h138" depart="61225.00" from="J8I8" to="H1H0"/>
    <trip id="17h139" depart="61225.00" from="K0K1" to="K10K11"/>
    <trip id="17h140" depart="61225.00" from="H11H10" to="K10K11"/>
    <trip id="17h141" depart="61225.00" from="L10K10" to="K7L7"/>
    <trip id="17h142" depart="61225.00" from="A1B1" to="B8A8"/>
    <trip id="17h143" depart="61226.00" from="K0K1" to="B10A10"/>
    <trip id="17h144" depart="61226.00" from="K10J10" to="K1L1"/>
    <trip id="17h145" depart="61226.00" from="L4K4" to="K1L1"/>
    <trip id="17h146" depart="61226.00" from="E0E1" to="E10E11"/>
    <trip id="17h147" depart="61226.00" from="D2C2" to="K1L1"/>
    <trip id="17h148" depart="61227.00" from="L4K4" to="I10I9"/>
    <trip id="17h149" depart="61227.00" from="K0K1" to="K7L7"/>
    <trip id="17h150" depart="61227.00" from="L10K10" to="H1H0"/>
    <trip id="17h151" depart="61227.00" from="E0E1" to="K10K11"/>
    <trip id="17h152" depart="61227.00" from="L10K10" to="K1L1"/>
    <trip id="17h153" depart="61227.00" from="L10K10" to="B4A4"/>
    <trip id="17h154" depart="61227.00" from="H11H10" to="E10E11"/>
    <trip id="17h155" depart="61227.00" from="L10K10" to="B1B0"/>
    <trip id="17h156" depart="61228.00" from="L10K10" to="D1E1"/>
    <trip id="17h157" depart="61228.00" from="A1B1" to="K7L7"/>
    <trip id="17h158" depart="61228.00" from="K0K1" to="F6F7"/>
    <trip id="17h159" depart="61228.00" from="L10K10" to="B10A10"/>
    <trip id="17h160" depart="61228.00" from="K0K1" to="B5B4"/>
    <trip id="17h161" depart="61229.00" from="H11H10" to="E10E11"/>
    <trip id="17h162" depart="61229.00" from="K0K1" to="B4A4"/>
    <trip id="17h163" depart="61229.00" from="A7B7" to="B1B0"/>
    <trip id="17h164" depart="61229.00" from="H11H10" to="K10K11"/>
    <trip id="17h165" depart="61229.00" from="B11B10" to="F4F3"/>
    <trip id="17h166" depart="61229.00" from="B11B10" to="B10A10"/>
    <trip id="17h167" depart="61230.00" from="B11B10" to="B1B0"/>
    <trip id="17h168" depart="61230.00" from="H11H10" to="B4A4"/>
    <trip id="17h169" depart="61230.00" from="K0K1" to="B1B0"/>
    <trip id="17h170" depart="61230.00" from="L10K10" to="H1H0"/>
    <trip id="17h171" depart="61230.00" from="E0E1" to="B1B0"/>
    <trip id="17h172" depart="61230.00" from="L4K4" to="F1G1"/>
    <trip id="17h173" depart="61230.00" from="A1B1" to="H8H7"/>
    <trip id="17h174" depart="61231.00" from="A7B7" to="H1H0"/>
    <trip id="17h175" depart="61231.00" from="gneE3" to="B1B0"/>
    <trip id="17h176" depart="61231.00" from="H11H10" to="E10E11"/>
    <trip id="17h177" depart="61231.00" from="L10K10" to="gneE1"/>
    <trip id="17h178" depart="61231.00" from="H4G4" to="H1H0"/>
    <trip id="17h179" depart="61232.00" from="B11B10" to="J3J2"/>
    <trip id="17h180" depart="61232.00" from="A7B7" to="B10A10"/>
    <trip id="17h181" depart="61232.00" from="E0E1" to="H1H0"/>
    <trip id="17h182" depart="61232.00" from="B11B10" to="K10K11"/>
    <trip id="17h183" depart="61232.00" from="K0K1" to="K7L7"/>
    <trip id="17h184" depart="61233.00" from="H11H10" to="I6I7"/>
    <trip id="17h185" depart="61233.00" from="A7B7" to="B5C5"/>
    <trip id="17h186" depart="61233.00" from="B11B10" to="B1B0"/>
    <trip id="17h187" depart="61233.00" from="F9G9" to="B10A10"/>
    <trip id="17h188" depart="61234.00" from="E0E1" to="C3B3"/>
    <trip id="17h189" depart="61234.00" from="A1B1" to="K7L7"/>
    <trip id="17h190" depart="61234.00" from="A1B1" to="K10K11"/>
    <trip id="17h191" depart="61234.00" from="I9H9" to="K7L7"/>
    <trip id="17h192" depart="61234.00" from="H11H10" to="I10I11"/>
    <trip id="17h193" depart="61235.00" from="A1B1" to="D6C6"/>
    <trip id="17h194" depart="61235.00" from="J8I8" to="K1L1"/>
    <trip id="17h195" depart="61235.00" from="K0K1" to="B4A4"/>
    <trip id="17h196" depart="61235.00" from="E10D10" to="B9B8"/>
    <trip id="17h197" depart="61235.00" from="L4K4" to="E10E11"/>
    <trip id="17h198" depart="61235.00" from="L8K8" to="J2I2"/>
    <trip id="17h199" depart="61235.00" from="E0E1" to="B1B0"/>
    <trip id="17h200" depart="61235.00" from="K0K1" to="H6H5"/>
    <trip id="17h201" depart="61236.00" from="H11H10" to="K7L7"/>
    <trip id="17h202" depart="61236.00" from="K0K1" to="B1B0"/>
    <trip id="17h203" depart="61236.00" from="A7B7" to="H1H0"/>
    <trip id="17h204" depart="61236.00" from="A1B1" to="gneE2"/>
    <trip id="17h205" depart="61236.00" from="A7B7" to="K1L1"/>
    <trip id="17h206" depart="61236.00" from="K0K1" to="G7G8"/>
    <trip id="17h207" depart="61237.00" from="L10K10" to="K7L7"/>
    <trip id="17h208" depart="61237.00" from="H11H10" to="E10E11"/>
    <trip id="17h209" depart="61237.00" from="L10K10" to="K1L1"/>
    <trip id="17h210" depart="61237.00" from="L10K10" to="E10E11"/>
    <trip id="17h211" depart="61237.00" from="L10K10" to="B4A4"/>
    <trip id="17h212" depart="61237.00" from="H11H10" to="gneE8"/>
    <trip id="17h213" depart="61237.00" from="A7B7" to="H1H0"/>
    <trip id="17h214" depart="61237.00" from="H11H10" to="H1H0"/>
    <trip id="17h215" depart="61238.00" from="C2C3" to="B1B0"/>
    <trip id="17h216" depart="61238.00" from="B11B10" to="K1L1"/>
    <trip id="17h217" depart="61238.00" from="K0K1" to="K10K11"/>
    <trip id="17h218" depart="61238.00" from="J5K5" to="K1L1"/>
    <trip id="17h219" depart="61238.00" from="A1B1" to="G3H3"/>
    <trip id="17h220" depart="61239.00" from="H11H10" to="E1F1"/>
    <trip id="17h221" depart="61239.00" from="J1J0" to="B1B0"/>
    <trip id="17h222" depart="61239.00" from="L4K4" to="D1D0"/>
    <trip id="17h223" depart="61240.00" from="C10B10" to="K10K11"/>
    <trip id="17h224" depart="61240.00" from="A1B1" to="H9H8"/>
    <trip id="17h225" depart="61240.00" from="A3B3" to="I10H10"/>
    <trip id="17h226" depart="61240.00" from="K0K1" to="K7L7"/>
    <trip id="17h227" depart="61241.00" from="L10K10" to="B4A4"/>
    <trip id="17h228" depart="61241.00" from="A7B7" to="H1H0"/>
    <trip id="17h229" depart="61241.00" from="L10K10" to="B1B0"/>
    <trip id="17h230" depart="61241.00" from="L10K10" to="H3H2"/>
    <trip id="17h231" depart="61241.00" from="L4K4" to="B1B0"/>
    <trip id="17h232" depart="61241.00" from="B11B10" to="B4A4"/>
    <trip id="17h233" depart="61241.00" from="L10K10" to="K7L7"/>
    <trip id="17h234" depart="61241.00" from="E0E1" to="D5D4"/>
    <trip id="17h235" depart="61242.00" from="B11B10" to="K1L1"/>
    <trip id="17h236" depart="61242.00" from="E0E1" to="F4E4"/>
    <trip id="17h237" depart="61242.00" from="H11H10" to="H1H0"/>
    <trip id="17h238" depart="61242.00" from="L4K4" to="J2I2"/>
    <trip id="17h239" depart="61242.00" from="H11H10" to="K10K11"/>
    <trip id="17h240" depart="61242.00" from="H11H10" to="G1G0"/>
    <trip id="17h241" depart="61243.00" from="L10K10" to="H1H0"/>
    <trip id="17h242" depart="61243.00" from="I1J1" to="H4G4"/>
    <trip id="17h243" depart="61243.00" from="E0E1" to="H1H0"/>
    <trip id="17h244" depart="61244.00" from="B11B10" to="K10K11"/>
    <trip id="17h245" depart="61244.00" from="A7B7" to="H1H0"/>
    <trip id="17h246" depart="61244.00" from="L4K4" to="K1L1"/>
    <trip id="17h247" depart="61244.00" from="L10K10" to="F3G3"/>
    <trip id="17h248" depart="61244.00" from="A7B7" to="K7L7"/>
    <trip id="17h249" depart="61244.00" from="L4K4" to="K1L1"/>
    <trip id="17h250" depart="61245.00" from="L10K10" to="B10A10"/>
    <trip id="17h251" depart="61245.00" from="E10D10" to="J9J8"/>
    <trip id="17h252" depart="61246.00" from="B11B10" to="B10A10"/>
    <trip id="17h253" depart="61246.00" from="L4K4" to="B4A4"/>
    <trip id="17h254" depart="61246.00" from="L10K10" to="K7L7"/>
    <trip id="17h255" depart="61246.00" from="E0E1" to="B1B0"/>
    <trip id="17h256" depart="61246.00" from="F9F8" to="B10A10"/>
    <trip id="17h257" depart="61246.00" from="E0E1" to="J8K8"/>
    <trip id="17h258" depart="61247.00" from="K0K1" to="B1B0"/>
    <trip id="17h259" depart="61247.00" from="A3B3" to="F7G7"/>
    <trip id="17h260" depart="61247.00" from="L4K4" to="B10A10"/>
    <trip id="17h261" depart="61247.00" from="E0E1" to="K7L7"/>
    <trip id="17h262" depart="61247.00" from="K0K1" to="H1H0"/>
    <trip id="17h263" depart="61247.00" from="E0E1" to="B1B0"/>
    <trip id="17h264" depart="61247.00" from="L10K10" to="E10E11"/>
    <trip id="17h265" depart="61248.00" from="K9K10" to="B4A4"/>
    <trip id="17h266" depart="61248.00" from="H11H10" to="B10A10"/>
    <trip id="17h267" depart="61248.00" from="B11B10" to="K1L1"/>
    <trip id="17h268" depart="61248.00" from="A7B7" to="K7L7"/>
    <trip id="17h269" depart="61248.00" from="L10K10" to="B1B0"/>
    <trip id="17h270" depart="61248.00" from="B11B10" to="B1B0"/>
    <trip id="17h271" depart="61249.00" from="A1B1" to="K1L1"/>
    <trip id="17h272" depart="61249.00" from="C3D3" to="B1B0"/>
    <trip id="17h273" depart="61249.00" from="K0K1" to="H1H0"/>
    <trip id="17h274" depart="61249.00" from="K4J4" to="G9G10"/>
    <trip id="17h275" depart="61249.00" from="G4F4" to="K7L7"/>
    <trip id="17h276" depart="61249.00" from="K6L6" to="K1L1"/>
    <trip id="17h277" depart="61249.00" from="E2E3" to="K7L7"/>
    <trip id="17h278" depart="61249.00" from="F2E2" to="E10E11"/>
    <trip id="17h279" depart="61250.00" from="L4K4" to="B10A10"/>
    <trip id="17h280" depart="61250.00" from="H11H10" to="B10A10"/>
    <trip id="17h281" depart="61250.00" from="I10H10" to="H1H0"/>
    <trip id="17h282" depart="61250.00" from="gneE4" to="H1H0"/>
    <trip id="17h283" depart="61250.00" from="H11H10" to="B10A10"/>
    <trip id="17h284" depart="61251.00" from="E0E1" to="B4A4"/>
    <trip id="17h285" depart="61251.00" from="E0E1" to="E10E11"/>
    <trip id="17h286" depart="61251.00" from="E0E1" to="J6I6"/>
    <trip id="17h287" depart="61251.00" from="A7B7" to="K7L7"/>
    <trip id="17h288" depart="61251.00" from="L10K10" to="B10A10"/>
    <trip id="17h289" depart="61251.00" from="K0K1" to="K1L1"/>
    <trip id="17h290" depart="61251.00" from="H11H10" to="H1H0"/>
    <trip id="17h291" depart="61251.00" from="A7B7" to="D8E8"/>
    <trip id="17h292" depart="61252.00" from="H11H10" to="B4A4"/>
    <trip id="17h293" depart="61252.00" from="A7B7" to="K1L1"/>
    <trip id="17h294" depart="61252.00" from="K0K1" to="H1H0"/>
    <trip id="17h295" depart="61253.00" from="L4K4" to="K1L1"/>
    <trip id="17h296" depart="61253.00" from="A7B7" to="K10K11"/>
    <trip id="17h297" depart="61253.00" from="D1E1" to="B10A10"/>
    <trip id="17h298" depart="61253.00" from="E0E1" to="B1B0"/>
    <trip id="17h299" depart="61254.00" from="K0K1" to="B4A4"/>
    <trip id="17h300" depart="61254.00" from="D2C2" to="E10E11"/>
    <trip id="17h301" depart="61254.00" from="A1B1" to="B10A10"/>
    <trip id="17h302" depart="61254.00" from="H2H1" to="K10J10"/>
    <trip id="17h303" depart="61254.00" from="J4I4" to="F5E5"/>
    <trip id="17h304" depart="61254.00" from="B11B10" to="K10K11"/>
    <trip id="17h305" depart="61254.00" from="E0E1" to="B4A4"/>
    <trip id="17h306" depart="61255.00" from="J7J6" to="B10A10"/>
    <trip id="17h307" depart="61255.00" from="H11H10" to="B10A10"/>
    <trip id="17h308" depart="61255.00" from="B11B10" to="B1B0"/>
    <trip id="17h309" depart="61255.00" from="C5D5" to="B10A10"/>
    <trip id="17h310" depart="61255.00" from="E0E1" to="K10K11"/>
    <trip id="17h311" depart="61255.00" from="L10K10" to="K1L1"/>
    <trip id="17h312" depart="61255.00" from="L10K10" to="B10A10"/>
    <trip id="17h313" depart="61255.00" from="L4K4" to="K1L1"/>
    <trip id="17h314" depart="61256.00" from="A7B7" to="B10A10"/>
    <trip id="17h315" depart="61256.00" from="L10K10" to="H2I2"/>
    <trip id="17h316" depart="61256.00" from="L10K10" to="B4A4"/>
    <trip id="17h317" depart="61256.00" from="E0E1" to="B7C7"/>
    <trip id="17h318" depart="61257.00" from="C8C9" to="B1B0"/>
    <trip id="17h319" depart="61257.00" from="A7B7" to="G7H7"/>
    <trip id="17h320" depart="61257.00" from="K0K1" to="K1L1"/>
    <trip id="17h321" depart="61257.00" from="A7B7" to="B1B0"/>
    <trip id="17h322" depart="61257.00" from="K1K2" to="G10F10"/>
    <trip id="17h323" depart="61258.00" from="L4K4" to="H1H0"/>
    <trip id="17h324" depart="61258.00" from="A1B1" to="E10E11"/>
    <trip id="17h325" depart="61258.00" from="B11B10" to="B10A10"/>
    <trip id="17h326" depart="61258.00" from="B7C7" to="E10E11"/>
    <trip id="17h327" depart="61259.00" from="L10K10" to="B10A10"/>
    <trip id="17h328" depart="61259.00" from="E4E5" to="H1H0"/>
    <trip id="17h329" depart="61259.00" from="L10K10" to="I9J9"/>
    <trip id="17h330" depart="61259.00" from="F10F11" to="B1B0"/>
    <trip id="17h331" depart="61259.00" from="A7B7" to="K7L7"/>
    <trip id="17h332" depart="61260.00" from="K0K1" to="G5G4"/>
    <trip id="17h333" depart="61260.00" from="B11B10" to="E10E11"/>
    <trip id="17h334" depart="61260.00" from="H11H10" to="B1B0"/>
    <trip id="17h335" depart="61260.00" from="B11B10" to="E10E11"/>
    <trip id="17h336" depart="61260.00" from="H11H10" to="K1L1"/>
    <trip id="17h337" depart="61260.00" from="A1B1" to="K10K11"/>
    <trip id="17h338" depart="61260.00" from="K0K1" to="J1K1"/>
    <trip id="17h339" depart="61261.00" from="H11H10" to="B1B0"/>
    <trip id="17h340" depart="61261.00" from="L4K4" to="K10K11"/>
    <trip id="17h341" depart="61261.00" from="H11H10" to="K7L7"/>
    <trip id="17h342" depart="61261.00" from="E0E1" to="K1L1"/>
    <trip id="17h343" depart="61261.00" from="I6H6" to="E10E11"/>
    <trip id="17h344" depart="61262.00" from="E0E1" to="B1B0"/>
    <trip id="17h345" depart="61262.00" from="L4K4" to="F5G5"/>
    <trip id="17h346" depart="61262.00" from="A7B7" to="B10A10"/>
    <trip id="17h347" depart="61262.00" from="K0K1" to="K1L1"/>
    <trip id="17h348" depart="61262.00" from="D11D10" to="K10K11"/>
    <trip id="17h349" depart="61262.00" from="E0E1" to="B1B0"/>
    <trip id="17h350" depart="61263.00" from="E0E1" to="E10E11"/>
    <trip id="17h351" depart="61263.00" from="E0E1" to="B4A4"/>
    <trip id="17h352" depart="61263.00" from="H11H10" to="B7B6"/>
    <trip id="17h353" depart="61263.00" from="L10K10" to="E10E11"/>
    <trip id="17h354" depart="61264.00" from="B11B10" to="E10E11"/>
    <trip id="17h355" depart="61264.00" from="L4K4" to="K1L1"/>
    <trip id="17h356" depart="61264.00" from="B11B10" to="I4H4"/>
    <trip id="17h357" depart="61264.00" from="A7B7" to="K1L1"/>
    <trip id="17h358" depart="61264.00" from="K0K1" to="B4A4"/>
    <trip id="17h359" depart="61264.00" from="E0E1" to="K7L7"/>
    <trip id="17h360" depart="61265.00" from="E0E1" to="D7D6"/>
    <trip id="17h361" depart="61265.00" from="A1B1" to="G3H3"/>
    <trip id="17h362" depart="61265.00" from="gneE4" to="E10E11"/>
    <trip id="17h363" depart="61265.00" from="L4K4" to="K1L1"/>
    <trip id="17h364" depart="61265.00" from="B11B10" to="K1L1"/>
    <trip id="17h365" depart="61265.00" from="K0K1" to="E10E11"/>
    <trip id="17h366" depart="61265.00" from="A1B1" to="B4A4"/>
    <trip id="17h367" depart="61266.00" from="K0K1" to="H1H0"/>
    <trip id="17h368" depart="61266.00" from="B11B10" to="B4A4"/>
    <trip id="17h369" depart="61266.00" from="E0E1" to="K1L1"/>
    <trip id="17h370" depart="61266.00" from="A7B7" to="K7L7"/>
    <trip id="17h371" depart="61266.00" from="H10G10" to="B4A4"/>
    <trip id="17h372" depart="61266.00" from="E0E1" to="H1H0"/>
    <trip id="17h373" depart="61266.00" from="E0E1" to="J6I6"/>
    <trip id="17h374" depart="61266.00" from="L4K4" to="B10A10"/>
    <trip id="17h375" depart="61267.00" from="G6H6" to="gneE0"/>
    <trip id="17h376" depart="61267.00" from="E0E1" to="E8E9"/>
    <trip id="17h377" depart="61267.00" from="A1B1" to="K1L1"/>
    <trip id="17h378" depart="61267.00" from="K0K1" to="H8G8"/>
    <trip id="17h379" depart="61267.00" from="A1B1" to="H1H0"/>
    <trip id="17h380" depart="61268.00" from="K4K5" to="E6D6"/>
    <trip id="17h381" depart="61268.00" from="K3K4" to="E2E3"/>
    <trip id="17h382" depart="61268.00" from="A1B1" to="B1B0"/>
    <trip id="17h383" depart="61268.00" from="L4K4" to="H10G10"/>
    <trip id="17h384" depart="61268.00" from="B11B10" to="K10K11"/>
    <trip id="17h385" depart="61268.00" from="E0E1" to="K1L1"/>
    <trip id="17h386" depart="61269.00" from="A7B7" to="E10E11"/>
    <trip id="17h387" depart="61269.00" from="L4K4" to="G1G0"/>
    <trip id="17h388" depart="61269.00" from="L4K4" to="H1H0"/>
    <trip id="17h389" depart="61269.00" from="H11H10" to="K1L1"/>
    <trip id="17h390" depart="61270.00" from="C2C3" to="B10A10"/>
    <trip id="17h391" depart="61270.00" from="H11H10" to="E10E11"/>
    <trip id="17h392" depart="61270.00" from="A1B1" to="K1L1"/>
    <trip id="17h393" depart="61270.00" from="gneE8" to="B4A4"/>
    <trip id="17h394" depart="61270.00" from="I2I1" to="E10E11"/>
    <trip id="17h395" depart="61271.00" from="H11H10" to="K1L1"/>
    <trip id="17h396" depart="61271.00" from="A1B1" to="K1L1"/>
    <trip id="17h397" depart="61271.00" from="E0E1" to="H1H0"/>
    <trip id="17h398" depart="61271.00" from="K0K1" to="H1H0"/>
    <trip id="17h399" depart="61271.00" from="E0E1" to="I8I7"/>
    <trip id="17h400" depart="61272.00" from="A7B7" to="K10K11"/>
    <trip id="17h401" depart="61272.00" from="E0E1" to="H1H0"/>
    <trip id="17h402" depart="61272.00" from="B11B10" to="E10E11"/>
    <trip id="17h403" depart="61272.00" from="L4K4" to="F8F7"/>
    <trip id="17h404" depart="61272.00" from="L10K10" to="E10E11"/>
    <trip id="17h405" depart="61272.00" from="A1B1" to="K10K11"/>
    <trip id="17h406" depart="61272.00" from="D5E5" to="B10A10"/>
    <trip id="17h407" depart="61273.00" from="L4K4" to="K1L1"/>
    <trip id="17h408" depart="61273.00" from="A7B7" to="B1C1"/>
    <trip id="17h409" depart="61273.00" from="L10K10" to="B10A10"/>
    <trip id="17h410" depart="61273.00" from="E0E1" to="K1L1"/>
    <trip id="17h411" depart="61273.00" from="H11H10" to="B10A10"/>
    <trip id="17h412" depart="61273.00" from="gneE9" to="K10K11"/>
    <trip id="17h413" depart="61274.00" from="K0K1" to="K1L1"/>
    <trip id="17h414" depart="61274.00" from="L4K4" to="I4I3"/>
    <trip id="17h415" depart="61274.00" from="K0K1" to="D4C4"/>
    <trip id="17h416" depart="61274.00" from="L4K4" to="E10E11"/>
    <trip id="17h417" depart="61274.00" from="A7B7" to="B1B0"/>
    <trip id="17h418" depart="61274.00" from="C3B3" to="K10K11"/>
    <trip id="17h419" depart="61275.00" from="L4K4" to="K7L7"/>
    <trip id="17h420" depart="61275.00" from="I10I9" to="H1H0"/>
    <trip id="17h421" depart="61275.00" from="B2C2" to="H1H0"/>
    <trip id="17h422" depart="61275.00" from="A7B7" to="K7L7"/>
    <trip id="17h423" depart="61275.00" from="J2K2" to="K10K11"/>
    <trip id="17h424" depart="61275.00" from="L10K10" to="B10A10"/>
    <trip id="17h425" depart="61275.00" from="I4H4" to="H1H0"/>
    <trip id="17h426" depart="61276.00" from="I3H3" to="G1H1"/>
    <trip id="17h427" depart="61276.00" from="L4K4" to="F4E4"/>
    <trip id="17h428" depart="61276.00" from="A1B1" to="B10A10"/>
    <trip id="17h429" depart="61276.00" from="F4F3" to="B2C2"/>
    <trip id="17h430" depart="61277.00" from="K0K1" to="K10K11"/>
    <trip id="17h431" depart="61277.00" from="E0E1" to="H1H0"/>
    <trip id="17h432" depart="61277.00" from="E6E7" to="B4A4"/>
    <trip id="17h433" depart="61277.00" from="A1B1" to="B4A4"/>
    <trip id="17h434" depart="61277.00" from="H1I1" to="B4A4"/>
    <trip id="17h435" depart="61277.00" from="C5C6" to="H1H0"/>
    <trip id="17h436" depart="61277.00" from="K0K1" to="G1H1"/>
    <trip id="17h437" depart="61278.00" from="G1H1" to="B6B5"/>
    <trip id="17h438" depart="61278.00" from="L4K4" to="G5G6"/>
    <trip id="17h439" depart="61278.00" from="D8C8" to="B10A10"/>
    <trip id="17h440" depart="61278.00" from="L10K10" to="J11J10"/>
    <trip id="17h441" depart="61278.00" from="H11H10" to="K1L1"/>
    <trip id="17h442" depart="61278.00" from="L10K10" to="K10K11"/>
    <trip id="17h443" depart="61278.00" from="E0E1" to="H1H0"/>
    <trip id="17h444" depart="61278.00" from="H11H10" to="B10A10"/>
    <trip id="17h445" depart="61279.00" from="K0K1" to="B4A4"/>
    <trip id="17h446" depart="61279.00" from="L4K4" to="E10E11"/>
    <trip id="17h447" depart="61279.00" from="L4K4" to="K10K11"/>
    <trip id="17h448" depart="61279.00" from="G7G8" to="G2G3"/>
    <trip id="17h449" depart="61279.00" from="A7B7" to="C8C9"/>
    <trip id="17h450" depart="61279.00" from="E1F1" to="H1H0"/>
    <trip id="17h451" depart="61279.00" from="C5D5" to="H1H0"/>
    <trip id="17h452" depart="61280.00" from="gneE10" to="K10K11"/>